version 2
run General-0-20241208-11:40:00-8456
attr configname General
attr datetime 20241208-11:40:00
attr experiment General
attr inifile omnetpp.ini
attr iterationvars ""
attr iterationvarsf ""
attr measurement ""
attr network EthNet
attr processid 8456
attr repetition 0
attr replication #0
attr resultdir results
attr runnumber 0
attr seedset 0
param **.numHosts 5
param **.client[*].numApps 1
param **.client[*].app[0].typename "\"TcpSessionApp\""
param **.client[*].app[0].connectAddress "\"server\""
param **.client[*].app[0].connectPort 1000
param **.client[*].app[0].sendBytes 1MB
param **.server.numApps 1
param **.server.app[0].typename "\"TcpEchoApp\""
param **.server.app[0].localPort 1000

scalar EthNet.server.lo[0].lo rcvdPkFromHl:count 0
attr interpolationmode none
attr source packetReceivedFromUpper
attr title "packets received from higher layer, count"
scalar EthNet.server.lo[0].lo rcvdPkFromHl:sum(packetBytes) 0
attr interpolationmode none
attr source packetReceivedFromUpper
attr title "packets received from higher layer, sum(packetBytes)"
scalar EthNet.server.lo[0].lo passedUpPk:count 0
attr interpolationmode none
attr source packetSentToUpper
attr title "packets passed to higher layer, count"
scalar EthNet.server.lo[0].lo passedUpPk:sum(packetBytes) 0
attr interpolationmode none
attr source packetSentToUpper
attr title "packets passed to higher layer, sum(packetBytes)"
scalar EthNet.server.eth[0].mac.queue packetPopped:count 1271
attr interpolationmode none
attr title "packet popped, count"
scalar EthNet.server.eth[0].mac.queue packetPopped:sum(packetBytes) 415774
attr interpolationmode none
attr title "packet popped, sum(packetBytes)"
statistic EthNet.server.eth[0].mac.queue queueingTime:histogram
field count 1271
field mean 0.00030778818253344
field stddev 0.00017501812735743
field min 0
field max 0.00059152
field sum 0.39119878
field sqrsum 0.0001593081695332
attr interpolationmode none
attr source queueingTime(packetPopped)
attr title "queueing times, histogram"
attr unit s
bin	-inf	0
bin	0	23
bin	1e-05	1
bin	2e-05	1
bin	3e-05	0
bin	4e-05	91
bin	5e-05	1
bin	6e-05	1
bin	7e-05	0
bin	8e-05	86
bin	9e-05	4
bin	0.0001	0
bin	0.00011	1
bin	0.00012	86
bin	0.00013	0
bin	0.00014	4
bin	0.00015	1
bin	0.00016	86
bin	0.00017	0
bin	0.00018	2
bin	0.00019	1
bin	0.0002	86
bin	0.00021	0
bin	0.00022	0
bin	0.00023	3
bin	0.00024	0
bin	0.00025	86
bin	0.00026	0
bin	0.00027	2
bin	0.00028	1
bin	0.00029	86
bin	0.0003	0
bin	0.00031	0
bin	0.00032	3
bin	0.00033	87
bin	0.00034	0
bin	0.00035	0
bin	0.00036	1
bin	0.00037	87
bin	0.00038	0
bin	0.00039	0
bin	0.0004	0
bin	0.00041	1
bin	0.00042	87
bin	0.00043	0
bin	0.00044	0
bin	0.00045	1
bin	0.00046	87
bin	0.00047	0
bin	0.00048	0
bin	0.00049	0
bin	0.0005	88
bin	0.00051	0
bin	0.00052	0
bin	0.00053	0
bin	0.00054	88
bin	0.00055	0
bin	0.00056	0
bin	0.00057	0
bin	0.00058	0
bin	0.00059	88
bin	0.0006	0
bin	0.00061	0
bin	0.00062	0
bin	0.00063	0
bin	0.00064	0
bin	0.00065	0
bin	0.00066	0
bin	0.00067	0
bin	0.00068	0
bin	0.00069	0
bin	0.0007	0
bin	0.00071	0
bin	0.00072	0
bin	0.00073	0
bin	0.00074	0
scalar EthNet.server.eth[0].mac.queue queueLength:max 13
attr interpolationmode sample-hold
attr source "count(packetPushed) - count(packetPopped) - count(packetRemoved) - count(packetDropped)"
attr title "queue length, max"
scalar EthNet.server.eth[0].mac.queue queueLength:timeavg 10.938804320968
attr interpolationmode sample-hold
attr source "count(packetPushed) - count(packetPopped) - count(packetRemoved) - count(packetDropped)"
attr title "queue length, timeavg"
scalar EthNet.server.eth[0].mac.queue packetPushed:count 1277
attr interpolationmode none
attr title "packet pushed, count"
scalar EthNet.server.eth[0].mac.queue packetPushed:sum(packetBytes) 416158
attr interpolationmode none
attr title "packet pushed, sum(packetBytes)"
scalar EthNet.server.eth[0].mac.queue packetDropQueueOverflow:count 0
attr interpolationmode none
attr source packetDropReasonIsQueueOverflow(packetDropped)
attr title "packet drops: queue overflow, count"
scalar EthNet.server.eth[0].mac.queue packetDropQueueOverflow:sum(packetBytes) 0
attr interpolationmode none
attr source packetDropReasonIsQueueOverflow(packetDropped)
attr title "packet drops: queue overflow, sum(packetBytes)"
scalar EthNet.server.eth[0].mac.queue packetRemoved:count 0
attr interpolationmode none
attr title "packets removed, count"
scalar EthNet.server.eth[0].mac.queue packetRemoved:sum(packetBytes) 0
attr interpolationmode none
attr title "packets removed, sum(packetBytes)"
scalar EthNet.server.eth[0].mac "simulated time" 1.03586259
scalar EthNet.server.eth[0].mac full-duplex 1
scalar EthNet.server.eth[0].mac "frames/sec sent" 1226.9967197097
scalar EthNet.server.eth[0].mac "frames/sec rcvd" 1221.2044456591
scalar EthNet.server.eth[0].mac "bits/sec sent" 3211035.9347952
scalar EthNet.server.eth[0].mac "bits/sec rcvd" 3265375.1884215
scalar EthNet.server.eth[0].mac "rx channel idle (%)" 100
scalar EthNet.server.eth[0].mac "rx channel utilization (%)" 0
scalar EthNet.server.eth[0].mac txPk:count 1271
attr interpolationmode none
attr source packetSentToLower
attr title "packets transmitted, count"
scalar EthNet.server.eth[0].mac txPk:sum(packetBytes) 415774
attr interpolationmode none
attr source packetSentToLower
attr title "packets transmitted, sum(packetBytes)"
scalar EthNet.server.eth[0].mac packetReceivedFromUpper:count 1277
attr interpolationmode none
attr source packetReceivedFromUpper
attr title "packet bytes from higher layer, count"
scalar EthNet.server.eth[0].mac packetReceivedFromUpper:sum(packetBytes) 412274
attr interpolationmode none
attr source packetReceivedFromUpper
attr title "packet bytes from higher layer, sum(packetBytes)"
scalar EthNet.server.eth[0].mac passedUpPk:count 1265
attr interpolationmode none
attr source packetSentToUpper
attr title "packets passed to higher layer, count"
scalar EthNet.server.eth[0].mac passedUpPk:sum(packetBytes) 422810
attr interpolationmode none
attr source packetSentToUpper
attr title "packets passed to higher layer, sum(packetBytes)"
scalar EthNet.server.eth[0].mac packetDropIncorrectlyReceived:count 0
attr interpolationmode none
attr source packetDropReasonIsIncorrectlyReceived(packetDropped)
attr title "packet drop: incorrectly received, count"
scalar EthNet.server.eth[0].mac packetDropIncorrectlyReceived:sum(packetBytes) 0
attr interpolationmode none
attr source packetDropReasonIsIncorrectlyReceived(packetDropped)
attr title "packet drop: incorrectly received, sum(packetBytes)"
scalar EthNet.server.eth[0].mac packetDropInterfaceDown:count 0
attr interpolationmode none
attr source packetDropReasonIsInterfaceDown(packetDropped)
attr title "packet drop: interface down, count"
scalar EthNet.server.eth[0].mac packetDropInterfaceDown:sum(packetBytes) 0
attr interpolationmode none
attr source packetDropReasonIsInterfaceDown(packetDropped)
attr title "packet drop: interface down, sum(packetBytes)"
scalar EthNet.server.eth[0].mac packetDropNotAddressedToUs:count 0
attr interpolationmode none
attr source packetDropReasonIsNotAddressedToUs(packetDropped)
attr title "packet drop: not addressed to us, count"
scalar EthNet.server.eth[0].mac packetDropNotAddressedToUs:sum(packetBytes) 0
attr interpolationmode none
attr source packetDropReasonIsNotAddressedToUs(packetDropped)
attr title "packet drop: not addressed to us, sum(packetBytes)"
scalar EthNet.server.eth[0].mac rxPausePkUnits:count 0
attr interpolationmode none
attr title "pause units received, count"
scalar EthNet.server.eth[0].mac rxPausePkUnits:sum 0
attr interpolationmode none
attr title "pause units received, sum"
scalar EthNet.server.eth[0].mac txPausePkUnits:count 0
attr interpolationmode none
attr title "pause units sent, count"
scalar EthNet.server.eth[0].mac txPausePkUnits:sum 0
attr interpolationmode none
attr title "pause units sent, sum"
scalar EthNet.server.eth[0].mac rxPkOk:count 1265
attr interpolationmode none
attr source rxPkOk
attr title "packets received OK, count"
scalar EthNet.server.eth[0].mac rxPkOk:sum(packetBytes) 422810
attr interpolationmode none
attr source rxPkOk
attr title "packets received OK, sum(packetBytes)"
scalar EthNet.server.eth[0].encap pauseSent:count 0
attr title "pause sent, count"
scalar EthNet.server.eth[0].encap pauseSent:sum 0
attr title "pause sent, sum"
scalar EthNet.server.eth[0].encap decapPk:count 1264
attr interpolationmode none
attr source decapPk
attr title "packets decapsulated, count"
scalar EthNet.server.eth[0].encap decapPk:sum(packetBytes) 399464
attr interpolationmode none
attr source decapPk
attr title "packets decapsulated, sum(packetBytes)"
scalar EthNet.server.eth[0].encap encapPk:count 1277
attr interpolationmode none
attr source encapPk
attr title "packets encapsulated, count"
scalar EthNet.server.eth[0].encap encapPk:sum(packetBytes) 389288
attr interpolationmode none
attr source encapPk
attr title "packets encapsulated, sum(packetBytes)"
scalar EthNet.server.eth[1].mac.queue packetPopped:count 1271
attr interpolationmode none
attr title "packet popped, count"
scalar EthNet.server.eth[1].mac.queue packetPopped:sum(packetBytes) 415774
attr interpolationmode none
attr title "packet popped, sum(packetBytes)"
statistic EthNet.server.eth[1].mac.queue queueingTime:histogram
field count 1271
field mean 0.00030778818253344
field stddev 0.00017501812735743
field min 0
field max 0.00059152
field sum 0.39119878
field sqrsum 0.0001593081695332
attr interpolationmode none
attr source queueingTime(packetPopped)
attr title "queueing times, histogram"
attr unit s
bin	-inf	0
bin	0	23
bin	1e-05	1
bin	2e-05	1
bin	3e-05	0
bin	4e-05	91
bin	5e-05	1
bin	6e-05	1
bin	7e-05	0
bin	8e-05	86
bin	9e-05	4
bin	0.0001	0
bin	0.00011	1
bin	0.00012	86
bin	0.00013	0
bin	0.00014	4
bin	0.00015	1
bin	0.00016	86
bin	0.00017	0
bin	0.00018	2
bin	0.00019	1
bin	0.0002	86
bin	0.00021	0
bin	0.00022	0
bin	0.00023	3
bin	0.00024	0
bin	0.00025	86
bin	0.00026	0
bin	0.00027	2
bin	0.00028	1
bin	0.00029	86
bin	0.0003	0
bin	0.00031	0
bin	0.00032	3
bin	0.00033	87
bin	0.00034	0
bin	0.00035	0
bin	0.00036	1
bin	0.00037	87
bin	0.00038	0
bin	0.00039	0
bin	0.0004	0
bin	0.00041	1
bin	0.00042	87
bin	0.00043	0
bin	0.00044	0
bin	0.00045	1
bin	0.00046	87
bin	0.00047	0
bin	0.00048	0
bin	0.00049	0
bin	0.0005	88
bin	0.00051	0
bin	0.00052	0
bin	0.00053	0
bin	0.00054	88
bin	0.00055	0
bin	0.00056	0
bin	0.00057	0
bin	0.00058	0
bin	0.00059	88
bin	0.0006	0
bin	0.00061	0
bin	0.00062	0
bin	0.00063	0
bin	0.00064	0
bin	0.00065	0
bin	0.00066	0
bin	0.00067	0
bin	0.00068	0
bin	0.00069	0
bin	0.0007	0
bin	0.00071	0
bin	0.00072	0
bin	0.00073	0
bin	0.00074	0
scalar EthNet.server.eth[1].mac.queue queueLength:max 13
attr interpolationmode sample-hold
attr source "count(packetPushed) - count(packetPopped) - count(packetRemoved) - count(packetDropped)"
attr title "queue length, max"
scalar EthNet.server.eth[1].mac.queue queueLength:timeavg 10.938804320968
attr interpolationmode sample-hold
attr source "count(packetPushed) - count(packetPopped) - count(packetRemoved) - count(packetDropped)"
attr title "queue length, timeavg"
scalar EthNet.server.eth[1].mac.queue packetPushed:count 1277
attr interpolationmode none
attr title "packet pushed, count"
scalar EthNet.server.eth[1].mac.queue packetPushed:sum(packetBytes) 416158
attr interpolationmode none
attr title "packet pushed, sum(packetBytes)"
scalar EthNet.server.eth[1].mac.queue packetDropQueueOverflow:count 0
attr interpolationmode none
attr source packetDropReasonIsQueueOverflow(packetDropped)
attr title "packet drops: queue overflow, count"
scalar EthNet.server.eth[1].mac.queue packetDropQueueOverflow:sum(packetBytes) 0
attr interpolationmode none
attr source packetDropReasonIsQueueOverflow(packetDropped)
attr title "packet drops: queue overflow, sum(packetBytes)"
scalar EthNet.server.eth[1].mac.queue packetRemoved:count 0
attr interpolationmode none
attr title "packets removed, count"
scalar EthNet.server.eth[1].mac.queue packetRemoved:sum(packetBytes) 0
attr interpolationmode none
attr title "packets removed, sum(packetBytes)"
scalar EthNet.server.eth[1].mac "simulated time" 1.03586259
scalar EthNet.server.eth[1].mac full-duplex 1
scalar EthNet.server.eth[1].mac "frames/sec sent" 1226.9967197097
scalar EthNet.server.eth[1].mac "frames/sec rcvd" 1221.2044456591
scalar EthNet.server.eth[1].mac "bits/sec sent" 3211035.9347952
scalar EthNet.server.eth[1].mac "bits/sec rcvd" 3265375.1884215
scalar EthNet.server.eth[1].mac "rx channel idle (%)" 100
scalar EthNet.server.eth[1].mac "rx channel utilization (%)" 0
scalar EthNet.server.eth[1].mac txPk:count 1271
attr interpolationmode none
attr source packetSentToLower
attr title "packets transmitted, count"
scalar EthNet.server.eth[1].mac txPk:sum(packetBytes) 415774
attr interpolationmode none
attr source packetSentToLower
attr title "packets transmitted, sum(packetBytes)"
scalar EthNet.server.eth[1].mac packetReceivedFromUpper:count 1277
attr interpolationmode none
attr source packetReceivedFromUpper
attr title "packet bytes from higher layer, count"
scalar EthNet.server.eth[1].mac packetReceivedFromUpper:sum(packetBytes) 412274
attr interpolationmode none
attr source packetReceivedFromUpper
attr title "packet bytes from higher layer, sum(packetBytes)"
scalar EthNet.server.eth[1].mac passedUpPk:count 1265
attr interpolationmode none
attr source packetSentToUpper
attr title "packets passed to higher layer, count"
scalar EthNet.server.eth[1].mac passedUpPk:sum(packetBytes) 422810
attr interpolationmode none
attr source packetSentToUpper
attr title "packets passed to higher layer, sum(packetBytes)"
scalar EthNet.server.eth[1].mac packetDropIncorrectlyReceived:count 0
attr interpolationmode none
attr source packetDropReasonIsIncorrectlyReceived(packetDropped)
attr title "packet drop: incorrectly received, count"
scalar EthNet.server.eth[1].mac packetDropIncorrectlyReceived:sum(packetBytes) 0
attr interpolationmode none
attr source packetDropReasonIsIncorrectlyReceived(packetDropped)
attr title "packet drop: incorrectly received, sum(packetBytes)"
scalar EthNet.server.eth[1].mac packetDropInterfaceDown:count 0
attr interpolationmode none
attr source packetDropReasonIsInterfaceDown(packetDropped)
attr title "packet drop: interface down, count"
scalar EthNet.server.eth[1].mac packetDropInterfaceDown:sum(packetBytes) 0
attr interpolationmode none
attr source packetDropReasonIsInterfaceDown(packetDropped)
attr title "packet drop: interface down, sum(packetBytes)"
scalar EthNet.server.eth[1].mac packetDropNotAddressedToUs:count 0
attr interpolationmode none
attr source packetDropReasonIsNotAddressedToUs(packetDropped)
attr title "packet drop: not addressed to us, count"
scalar EthNet.server.eth[1].mac packetDropNotAddressedToUs:sum(packetBytes) 0
attr interpolationmode none
attr source packetDropReasonIsNotAddressedToUs(packetDropped)
attr title "packet drop: not addressed to us, sum(packetBytes)"
scalar EthNet.server.eth[1].mac rxPausePkUnits:count 0
attr interpolationmode none
attr title "pause units received, count"
scalar EthNet.server.eth[1].mac rxPausePkUnits:sum 0
attr interpolationmode none
attr title "pause units received, sum"
scalar EthNet.server.eth[1].mac txPausePkUnits:count 0
attr interpolationmode none
attr title "pause units sent, count"
scalar EthNet.server.eth[1].mac txPausePkUnits:sum 0
attr interpolationmode none
attr title "pause units sent, sum"
scalar EthNet.server.eth[1].mac rxPkOk:count 1265
attr interpolationmode none
attr source rxPkOk
attr title "packets received OK, count"
scalar EthNet.server.eth[1].mac rxPkOk:sum(packetBytes) 422810
attr interpolationmode none
attr source rxPkOk
attr title "packets received OK, sum(packetBytes)"
scalar EthNet.server.eth[1].encap pauseSent:count 0
attr title "pause sent, count"
scalar EthNet.server.eth[1].encap pauseSent:sum 0
attr title "pause sent, sum"
scalar EthNet.server.eth[1].encap decapPk:count 1264
attr interpolationmode none
attr source decapPk
attr title "packets decapsulated, count"
scalar EthNet.server.eth[1].encap decapPk:sum(packetBytes) 399464
attr interpolationmode none
attr source decapPk
attr title "packets decapsulated, sum(packetBytes)"
scalar EthNet.server.eth[1].encap encapPk:count 1277
attr interpolationmode none
attr source encapPk
attr title "packets encapsulated, count"
scalar EthNet.server.eth[1].encap encapPk:sum(packetBytes) 389288
attr interpolationmode none
attr source encapPk
attr title "packets encapsulated, sum(packetBytes)"
scalar EthNet.server.eth[2].mac.queue packetPopped:count 1271
attr interpolationmode none
attr title "packet popped, count"
scalar EthNet.server.eth[2].mac.queue packetPopped:sum(packetBytes) 415774
attr interpolationmode none
attr title "packet popped, sum(packetBytes)"
statistic EthNet.server.eth[2].mac.queue queueingTime:histogram
field count 1271
field mean 0.00030778818253344
field stddev 0.00017501812735743
field min 0
field max 0.00059152
field sum 0.39119878
field sqrsum 0.0001593081695332
attr interpolationmode none
attr source queueingTime(packetPopped)
attr title "queueing times, histogram"
attr unit s
bin	-inf	0
bin	0	23
bin	1e-05	1
bin	2e-05	1
bin	3e-05	0
bin	4e-05	91
bin	5e-05	1
bin	6e-05	1
bin	7e-05	0
bin	8e-05	86
bin	9e-05	4
bin	0.0001	0
bin	0.00011	1
bin	0.00012	86
bin	0.00013	0
bin	0.00014	4
bin	0.00015	1
bin	0.00016	86
bin	0.00017	0
bin	0.00018	2
bin	0.00019	1
bin	0.0002	86
bin	0.00021	0
bin	0.00022	0
bin	0.00023	3
bin	0.00024	0
bin	0.00025	86
bin	0.00026	0
bin	0.00027	2
bin	0.00028	1
bin	0.00029	86
bin	0.0003	0
bin	0.00031	0
bin	0.00032	3
bin	0.00033	87
bin	0.00034	0
bin	0.00035	0
bin	0.00036	1
bin	0.00037	87
bin	0.00038	0
bin	0.00039	0
bin	0.0004	0
bin	0.00041	1
bin	0.00042	87
bin	0.00043	0
bin	0.00044	0
bin	0.00045	1
bin	0.00046	87
bin	0.00047	0
bin	0.00048	0
bin	0.00049	0
bin	0.0005	88
bin	0.00051	0
bin	0.00052	0
bin	0.00053	0
bin	0.00054	88
bin	0.00055	0
bin	0.00056	0
bin	0.00057	0
bin	0.00058	0
bin	0.00059	88
bin	0.0006	0
bin	0.00061	0
bin	0.00062	0
bin	0.00063	0
bin	0.00064	0
bin	0.00065	0
bin	0.00066	0
bin	0.00067	0
bin	0.00068	0
bin	0.00069	0
bin	0.0007	0
bin	0.00071	0
bin	0.00072	0
bin	0.00073	0
bin	0.00074	0
scalar EthNet.server.eth[2].mac.queue queueLength:max 13
attr interpolationmode sample-hold
attr source "count(packetPushed) - count(packetPopped) - count(packetRemoved) - count(packetDropped)"
attr title "queue length, max"
scalar EthNet.server.eth[2].mac.queue queueLength:timeavg 10.938804320968
attr interpolationmode sample-hold
attr source "count(packetPushed) - count(packetPopped) - count(packetRemoved) - count(packetDropped)"
attr title "queue length, timeavg"
scalar EthNet.server.eth[2].mac.queue packetPushed:count 1277
attr interpolationmode none
attr title "packet pushed, count"
scalar EthNet.server.eth[2].mac.queue packetPushed:sum(packetBytes) 416158
attr interpolationmode none
attr title "packet pushed, sum(packetBytes)"
scalar EthNet.server.eth[2].mac.queue packetDropQueueOverflow:count 0
attr interpolationmode none
attr source packetDropReasonIsQueueOverflow(packetDropped)
attr title "packet drops: queue overflow, count"
scalar EthNet.server.eth[2].mac.queue packetDropQueueOverflow:sum(packetBytes) 0
attr interpolationmode none
attr source packetDropReasonIsQueueOverflow(packetDropped)
attr title "packet drops: queue overflow, sum(packetBytes)"
scalar EthNet.server.eth[2].mac.queue packetRemoved:count 0
attr interpolationmode none
attr title "packets removed, count"
scalar EthNet.server.eth[2].mac.queue packetRemoved:sum(packetBytes) 0
attr interpolationmode none
attr title "packets removed, sum(packetBytes)"
scalar EthNet.server.eth[2].mac "simulated time" 1.03586259
scalar EthNet.server.eth[2].mac full-duplex 1
scalar EthNet.server.eth[2].mac "frames/sec sent" 1226.9967197097
scalar EthNet.server.eth[2].mac "frames/sec rcvd" 1221.2044456591
scalar EthNet.server.eth[2].mac "bits/sec sent" 3211035.9347952
scalar EthNet.server.eth[2].mac "bits/sec rcvd" 3265375.1884215
scalar EthNet.server.eth[2].mac "rx channel idle (%)" 100
scalar EthNet.server.eth[2].mac "rx channel utilization (%)" 0
scalar EthNet.server.eth[2].mac txPk:count 1271
attr interpolationmode none
attr source packetSentToLower
attr title "packets transmitted, count"
scalar EthNet.server.eth[2].mac txPk:sum(packetBytes) 415774
attr interpolationmode none
attr source packetSentToLower
attr title "packets transmitted, sum(packetBytes)"
scalar EthNet.server.eth[2].mac packetReceivedFromUpper:count 1277
attr interpolationmode none
attr source packetReceivedFromUpper
attr title "packet bytes from higher layer, count"
scalar EthNet.server.eth[2].mac packetReceivedFromUpper:sum(packetBytes) 412274
attr interpolationmode none
attr source packetReceivedFromUpper
attr title "packet bytes from higher layer, sum(packetBytes)"
scalar EthNet.server.eth[2].mac passedUpPk:count 1265
attr interpolationmode none
attr source packetSentToUpper
attr title "packets passed to higher layer, count"
scalar EthNet.server.eth[2].mac passedUpPk:sum(packetBytes) 422810
attr interpolationmode none
attr source packetSentToUpper
attr title "packets passed to higher layer, sum(packetBytes)"
scalar EthNet.server.eth[2].mac packetDropIncorrectlyReceived:count 0
attr interpolationmode none
attr source packetDropReasonIsIncorrectlyReceived(packetDropped)
attr title "packet drop: incorrectly received, count"
scalar EthNet.server.eth[2].mac packetDropIncorrectlyReceived:sum(packetBytes) 0
attr interpolationmode none
attr source packetDropReasonIsIncorrectlyReceived(packetDropped)
attr title "packet drop: incorrectly received, sum(packetBytes)"
scalar EthNet.server.eth[2].mac packetDropInterfaceDown:count 0
attr interpolationmode none
attr source packetDropReasonIsInterfaceDown(packetDropped)
attr title "packet drop: interface down, count"
scalar EthNet.server.eth[2].mac packetDropInterfaceDown:sum(packetBytes) 0
attr interpolationmode none
attr source packetDropReasonIsInterfaceDown(packetDropped)
attr title "packet drop: interface down, sum(packetBytes)"
scalar EthNet.server.eth[2].mac packetDropNotAddressedToUs:count 0
attr interpolationmode none
attr source packetDropReasonIsNotAddressedToUs(packetDropped)
attr title "packet drop: not addressed to us, count"
scalar EthNet.server.eth[2].mac packetDropNotAddressedToUs:sum(packetBytes) 0
attr interpolationmode none
attr source packetDropReasonIsNotAddressedToUs(packetDropped)
attr title "packet drop: not addressed to us, sum(packetBytes)"
scalar EthNet.server.eth[2].mac rxPausePkUnits:count 0
attr interpolationmode none
attr title "pause units received, count"
scalar EthNet.server.eth[2].mac rxPausePkUnits:sum 0
attr interpolationmode none
attr title "pause units received, sum"
scalar EthNet.server.eth[2].mac txPausePkUnits:count 0
attr interpolationmode none
attr title "pause units sent, count"
scalar EthNet.server.eth[2].mac txPausePkUnits:sum 0
attr interpolationmode none
attr title "pause units sent, sum"
scalar EthNet.server.eth[2].mac rxPkOk:count 1265
attr interpolationmode none
attr source rxPkOk
attr title "packets received OK, count"
scalar EthNet.server.eth[2].mac rxPkOk:sum(packetBytes) 422810
attr interpolationmode none
attr source rxPkOk
attr title "packets received OK, sum(packetBytes)"
scalar EthNet.server.eth[2].encap pauseSent:count 0
attr title "pause sent, count"
scalar EthNet.server.eth[2].encap pauseSent:sum 0
attr title "pause sent, sum"
scalar EthNet.server.eth[2].encap decapPk:count 1264
attr interpolationmode none
attr source decapPk
attr title "packets decapsulated, count"
scalar EthNet.server.eth[2].encap decapPk:sum(packetBytes) 399464
attr interpolationmode none
attr source decapPk
attr title "packets decapsulated, sum(packetBytes)"
scalar EthNet.server.eth[2].encap encapPk:count 1277
attr interpolationmode none
attr source encapPk
attr title "packets encapsulated, count"
scalar EthNet.server.eth[2].encap encapPk:sum(packetBytes) 389288
attr interpolationmode none
attr source encapPk
attr title "packets encapsulated, sum(packetBytes)"
scalar EthNet.server.eth[3].mac.queue packetPopped:count 1271
attr interpolationmode none
attr title "packet popped, count"
scalar EthNet.server.eth[3].mac.queue packetPopped:sum(packetBytes) 415774
attr interpolationmode none
attr title "packet popped, sum(packetBytes)"
statistic EthNet.server.eth[3].mac.queue queueingTime:histogram
field count 1271
field mean 0.00030778818253344
field stddev 0.00017501812735743
field min 0
field max 0.00059152
field sum 0.39119878
field sqrsum 0.0001593081695332
attr interpolationmode none
attr source queueingTime(packetPopped)
attr title "queueing times, histogram"
attr unit s
bin	-inf	0
bin	0	23
bin	1e-05	1
bin	2e-05	1
bin	3e-05	0
bin	4e-05	91
bin	5e-05	1
bin	6e-05	1
bin	7e-05	0
bin	8e-05	86
bin	9e-05	4
bin	0.0001	0
bin	0.00011	1
bin	0.00012	86
bin	0.00013	0
bin	0.00014	4
bin	0.00015	1
bin	0.00016	86
bin	0.00017	0
bin	0.00018	2
bin	0.00019	1
bin	0.0002	86
bin	0.00021	0
bin	0.00022	0
bin	0.00023	3
bin	0.00024	0
bin	0.00025	86
bin	0.00026	0
bin	0.00027	2
bin	0.00028	1
bin	0.00029	86
bin	0.0003	0
bin	0.00031	0
bin	0.00032	3
bin	0.00033	87
bin	0.00034	0
bin	0.00035	0
bin	0.00036	1
bin	0.00037	87
bin	0.00038	0
bin	0.00039	0
bin	0.0004	0
bin	0.00041	1
bin	0.00042	87
bin	0.00043	0
bin	0.00044	0
bin	0.00045	1
bin	0.00046	87
bin	0.00047	0
bin	0.00048	0
bin	0.00049	0
bin	0.0005	88
bin	0.00051	0
bin	0.00052	0
bin	0.00053	0
bin	0.00054	88
bin	0.00055	0
bin	0.00056	0
bin	0.00057	0
bin	0.00058	0
bin	0.00059	88
bin	0.0006	0
bin	0.00061	0
bin	0.00062	0
bin	0.00063	0
bin	0.00064	0
bin	0.00065	0
bin	0.00066	0
bin	0.00067	0
bin	0.00068	0
bin	0.00069	0
bin	0.0007	0
bin	0.00071	0
bin	0.00072	0
bin	0.00073	0
bin	0.00074	0
scalar EthNet.server.eth[3].mac.queue queueLength:max 13
attr interpolationmode sample-hold
attr source "count(packetPushed) - count(packetPopped) - count(packetRemoved) - count(packetDropped)"
attr title "queue length, max"
scalar EthNet.server.eth[3].mac.queue queueLength:timeavg 10.938804320968
attr interpolationmode sample-hold
attr source "count(packetPushed) - count(packetPopped) - count(packetRemoved) - count(packetDropped)"
attr title "queue length, timeavg"
scalar EthNet.server.eth[3].mac.queue packetPushed:count 1277
attr interpolationmode none
attr title "packet pushed, count"
scalar EthNet.server.eth[3].mac.queue packetPushed:sum(packetBytes) 416158
attr interpolationmode none
attr title "packet pushed, sum(packetBytes)"
scalar EthNet.server.eth[3].mac.queue packetDropQueueOverflow:count 0
attr interpolationmode none
attr source packetDropReasonIsQueueOverflow(packetDropped)
attr title "packet drops: queue overflow, count"
scalar EthNet.server.eth[3].mac.queue packetDropQueueOverflow:sum(packetBytes) 0
attr interpolationmode none
attr source packetDropReasonIsQueueOverflow(packetDropped)
attr title "packet drops: queue overflow, sum(packetBytes)"
scalar EthNet.server.eth[3].mac.queue packetRemoved:count 0
attr interpolationmode none
attr title "packets removed, count"
scalar EthNet.server.eth[3].mac.queue packetRemoved:sum(packetBytes) 0
attr interpolationmode none
attr title "packets removed, sum(packetBytes)"
scalar EthNet.server.eth[3].mac "simulated time" 1.03586259
scalar EthNet.server.eth[3].mac full-duplex 1
scalar EthNet.server.eth[3].mac "frames/sec sent" 1226.9967197097
scalar EthNet.server.eth[3].mac "frames/sec rcvd" 1221.2044456591
scalar EthNet.server.eth[3].mac "bits/sec sent" 3211035.9347952
scalar EthNet.server.eth[3].mac "bits/sec rcvd" 3265375.1884215
scalar EthNet.server.eth[3].mac "rx channel idle (%)" 100
scalar EthNet.server.eth[3].mac "rx channel utilization (%)" 0
scalar EthNet.server.eth[3].mac txPk:count 1271
attr interpolationmode none
attr source packetSentToLower
attr title "packets transmitted, count"
scalar EthNet.server.eth[3].mac txPk:sum(packetBytes) 415774
attr interpolationmode none
attr source packetSentToLower
attr title "packets transmitted, sum(packetBytes)"
scalar EthNet.server.eth[3].mac packetReceivedFromUpper:count 1277
attr interpolationmode none
attr source packetReceivedFromUpper
attr title "packet bytes from higher layer, count"
scalar EthNet.server.eth[3].mac packetReceivedFromUpper:sum(packetBytes) 412274
attr interpolationmode none
attr source packetReceivedFromUpper
attr title "packet bytes from higher layer, sum(packetBytes)"
scalar EthNet.server.eth[3].mac passedUpPk:count 1265
attr interpolationmode none
attr source packetSentToUpper
attr title "packets passed to higher layer, count"
scalar EthNet.server.eth[3].mac passedUpPk:sum(packetBytes) 422810
attr interpolationmode none
attr source packetSentToUpper
attr title "packets passed to higher layer, sum(packetBytes)"
scalar EthNet.server.eth[3].mac packetDropIncorrectlyReceived:count 0
attr interpolationmode none
attr source packetDropReasonIsIncorrectlyReceived(packetDropped)
attr title "packet drop: incorrectly received, count"
scalar EthNet.server.eth[3].mac packetDropIncorrectlyReceived:sum(packetBytes) 0
attr interpolationmode none
attr source packetDropReasonIsIncorrectlyReceived(packetDropped)
attr title "packet drop: incorrectly received, sum(packetBytes)"
scalar EthNet.server.eth[3].mac packetDropInterfaceDown:count 0
attr interpolationmode none
attr source packetDropReasonIsInterfaceDown(packetDropped)
attr title "packet drop: interface down, count"
scalar EthNet.server.eth[3].mac packetDropInterfaceDown:sum(packetBytes) 0
attr interpolationmode none
attr source packetDropReasonIsInterfaceDown(packetDropped)
attr title "packet drop: interface down, sum(packetBytes)"
scalar EthNet.server.eth[3].mac packetDropNotAddressedToUs:count 0
attr interpolationmode none
attr source packetDropReasonIsNotAddressedToUs(packetDropped)
attr title "packet drop: not addressed to us, count"
scalar EthNet.server.eth[3].mac packetDropNotAddressedToUs:sum(packetBytes) 0
attr interpolationmode none
attr source packetDropReasonIsNotAddressedToUs(packetDropped)
attr title "packet drop: not addressed to us, sum(packetBytes)"
scalar EthNet.server.eth[3].mac rxPausePkUnits:count 0
attr interpolationmode none
attr title "pause units received, count"
scalar EthNet.server.eth[3].mac rxPausePkUnits:sum 0
attr interpolationmode none
attr title "pause units received, sum"
scalar EthNet.server.eth[3].mac txPausePkUnits:count 0
attr interpolationmode none
attr title "pause units sent, count"
scalar EthNet.server.eth[3].mac txPausePkUnits:sum 0
attr interpolationmode none
attr title "pause units sent, sum"
scalar EthNet.server.eth[3].mac rxPkOk:count 1265
attr interpolationmode none
attr source rxPkOk
attr title "packets received OK, count"
scalar EthNet.server.eth[3].mac rxPkOk:sum(packetBytes) 422810
attr interpolationmode none
attr source rxPkOk
attr title "packets received OK, sum(packetBytes)"
scalar EthNet.server.eth[3].encap pauseSent:count 0
attr title "pause sent, count"
scalar EthNet.server.eth[3].encap pauseSent:sum 0
attr title "pause sent, sum"
scalar EthNet.server.eth[3].encap decapPk:count 1264
attr interpolationmode none
attr source decapPk
attr title "packets decapsulated, count"
scalar EthNet.server.eth[3].encap decapPk:sum(packetBytes) 399464
attr interpolationmode none
attr source decapPk
attr title "packets decapsulated, sum(packetBytes)"
scalar EthNet.server.eth[3].encap encapPk:count 1277
attr interpolationmode none
attr source encapPk
attr title "packets encapsulated, count"
scalar EthNet.server.eth[3].encap encapPk:sum(packetBytes) 389288
attr interpolationmode none
attr source encapPk
attr title "packets encapsulated, sum(packetBytes)"
scalar EthNet.server.ipv4.ip packetDropAddressResolutionFailed:count 0
attr interpolationmode none
attr source packetDropReasonIsAddressResolutionFailed(packetDropped)
attr title "packet drop: address resolution failed, count"
scalar EthNet.server.ipv4.ip packetDropAddressResolutionFailed:sum(packetBytes) 0
attr interpolationmode none
attr source packetDropReasonIsAddressResolutionFailed(packetDropped)
attr title "packet drop: address resolution failed, sum(packetBytes)"
scalar EthNet.server.ipv4.ip packetDropHopLimitReached:count 0
attr interpolationmode none
attr source packetDropReasonIsHopLimitReached(packetDropped)
attr title "packet drop: hop limit reached, count"
scalar EthNet.server.ipv4.ip packetDropHopLimitReached:sum(packetBytes) 0
attr interpolationmode none
attr source packetDropReasonIsHopLimitReached(packetDropped)
attr title "packet drop: hop limit reached, sum(packetBytes)"
scalar EthNet.server.ipv4.ip packetDropForwardingDisabled:count 0
attr interpolationmode none
attr source packetDropReasonIsForwardingDisabled(packetDropped)
attr title "packet drop: forwarding disabled, count"
scalar EthNet.server.ipv4.ip packetDropForwardingDisabled:sum(packetBytes) 0
attr interpolationmode none
attr source packetDropReasonIsForwardingDisabled(packetDropped)
attr title "packet drop: forwarding disabled, sum(packetBytes)"
scalar EthNet.server.ipv4.ip packetDropNoInterfaceFound:count 0
attr interpolationmode none
attr source packetDropReasonIsNoInterfaceFound(packetDropped)
attr title "packet drop: no interface found, count"
scalar EthNet.server.ipv4.ip packetDropNoInterfaceFound:sum(packetBytes) 0
attr interpolationmode none
attr source packetDropReasonIsNoInterfaceFound(packetDropped)
attr title "packet drop: no interface found, sum(packetBytes)"
scalar EthNet.server.ipv4.ip packetDropNoRouteFound:count 0
attr interpolationmode none
attr source packetDropReasonIsNoRouteFound(packetDropped)
attr title "packet drop: no route found, count"
scalar EthNet.server.ipv4.ip packetDropNoRouteFound:sum(packetBytes) 0
attr interpolationmode none
attr source packetDropReasonIsNoRouteFound(packetDropped)
attr title "packet drop: no route found, sum(packetBytes)"
scalar EthNet.server.ipv4.ip packetDropUndefined:count 0
attr interpolationmode none
attr source packetDropReasonIsUndefined(packetDropped)
attr title "packet drop: undefined, count"
scalar EthNet.server.ipv4.ip packetDropUndefined:sum(packetBytes) 0
attr interpolationmode none
attr source packetDropReasonIsUndefined(packetDropped)
attr title "packet drop: undefined, sum(packetBytes)"
scalar EthNet.server.ipv4.arp arpReplySent:count 4
attr source arpReplySent
attr title "ARP replies sent, count"
scalar EthNet.server.ipv4.arp arpReplySent:sum(packetBytes) 112
attr source arpReplySent
attr title "ARP replies sent, sum(packetBytes)"
scalar EthNet.server.ipv4.arp arpRequestSent:count 0
attr source arpRequestSent
attr title "ARP request sent, count"
scalar EthNet.server.ipv4.arp arpRequestSent:sum(packetBytes) 0
attr source arpRequestSent
attr title "ARP request sent, sum(packetBytes)"
scalar EthNet.server.ipv4.arp arpResolutionFailed:count 0
attr title "ARP failed resolutions, count"
scalar EthNet.server.ipv4.arp arpResolutionCompleted:count 4
attr title "ARP completed resolutions, count"
scalar EthNet.server.ipv4.arp arpResolutionInitiated:count 0
attr title "ARP initiated resolutions, count"
scalar EthNet.server.udp packetReceived:count 0
attr interpolationmode none
attr source packetReceived
attr title "packets received, count"
scalar EthNet.server.udp packetReceived:sum(packetBytes) 0
attr interpolationmode none
attr source packetReceived
attr title "packets received, sum(packetBytes)"
scalar EthNet.server.udp packetSent:count 0
attr interpolationmode none
attr source packetSent
attr title "packets sent, count"
scalar EthNet.server.udp packetSent:sum(packetBytes) 0
attr interpolationmode none
attr source packetSent
attr title "packets sent, sum(packetBytes)"
scalar EthNet.server.udp passedUpPk:count 0
attr interpolationmode none
attr source packetSentToUpper
attr title "packets passed up, count"
scalar EthNet.server.udp droppedPkWrongPort:count 0
attr interpolationmode none
attr source packetDropReasonIsNoPortFound(packetDropped)
attr title "packets dropped (wrong port), count"
scalar EthNet.server.udp droppedPkBadChecksum:count 0
attr interpolationmode none
attr source packetDropReasonIsIncorrectlyReceived(packetDropped)
attr title "packets dropped (checksum error), count"
scalar EthNet.server.app[0] bytesRcvd 1380736
scalar EthNet.server.app[0] bytesSent 1380736
scalar EthNet.server.app[0] packetReceived:count 2576
attr interpolationmode none
attr source packetReceived
attr title "packets received, count"
scalar EthNet.server.app[0] packetReceived:sum(packetBytes) 1380736
attr interpolationmode none
attr source packetReceived
attr title "packets received, sum(packetBytes)"
statistic EthNet.server.app[0] endToEndDelay:histogram
field count 2576
field mean 0.017877971956522
field stddev 0.010377144408909
field min 5.493e-05
field max 0.03579023
field sum 46.05365576
field sqrsum 1.1006351658372
attr interpolationmode none
attr source dataAge(packetReceived)
attr title "end-to-end delay, histogram"
attr unit s
bin	-inf	0
bin	0	28
bin	0.0004	32
bin	0.0008	32
bin	0.0012	28
bin	0.0016	32
bin	0.002	24
bin	0.0024	32
bin	0.0028	28
bin	0.0032	32
bin	0.0036	24
bin	0.004	32
bin	0.0044	24
bin	0.0048	32
bin	0.0052	28
bin	0.0056	32
bin	0.006	24
bin	0.0064	32
bin	0.0068	24
bin	0.0072	36
bin	0.0076	24
bin	0.008	32
bin	0.0084	24
bin	0.0088	32
bin	0.0092	28
bin	0.0096	32
bin	0.01	24
bin	0.0104	32
bin	0.0108	24
bin	0.0112	32
bin	0.0116	28
bin	0.012	32
bin	0.0124	24
bin	0.0128	32
bin	0.0132	24
bin	0.0136	32
bin	0.014	28
bin	0.0144	28
bin	0.0148	28
bin	0.0152	28
bin	0.0156	28
bin	0.016	28
bin	0.0164	32
bin	0.0168	24
bin	0.0172	32
bin	0.0176	24
bin	0.018	36
bin	0.0184	24
bin	0.0188	32
bin	0.0192	24
bin	0.0196	32
bin	0.02	28
bin	0.0204	32
bin	0.0208	24
bin	0.0212	32
bin	0.0216	24
bin	0.022	32
bin	0.0224	28
bin	0.0228	32
bin	0.0232	24
bin	0.0236	32
bin	0.024	24
bin	0.0244	36
bin	0.0248	24
bin	0.0252	32
bin	0.0256	24
bin	0.026	32
bin	0.0264	28
bin	0.0268	32
bin	0.0272	24
bin	0.0276	32
bin	0.028	24
bin	0.0284	32
bin	0.0288	28
bin	0.0292	32
bin	0.0296	24
bin	0.03	32
bin	0.0304	24
bin	0.0308	32
bin	0.0312	28
bin	0.0316	28
bin	0.032	28
bin	0.0324	28
bin	0.0328	32
bin	0.0332	24
bin	0.0336	32
bin	0.034	24
bin	0.0344	32
bin	0.0348	24
bin	0.0352	36
bin	0.0356	16
bin	0.036	0
statistic EthNet.server.app[0] endToEndDelay:weightedHistogram
field count 2576
field mean 0.017877971956522
field stddev 0.010377144408909
field min 5.493e-05
field max 0.03579023
field weights 11045888
field weightedSum 197478.07589888
field sqrSumWeights 47364767744
field weightedSqrSum 4719.5235911101
attr interpolationmode none
attr source dataAge(packetReceived)
attr title "end-to-end delay, weightedHistogram"
attr unit s
bin	-inf	0
bin	0	120064
bin	0.0004	137216
bin	0.0008	137216
bin	0.0012	120064
bin	0.0016	137216
bin	0.002	102912
bin	0.0024	137216
bin	0.0028	120064
bin	0.0032	137216
bin	0.0036	102912
bin	0.004	137216
bin	0.0044	102912
bin	0.0048	137216
bin	0.0052	120064
bin	0.0056	137216
bin	0.006	102912
bin	0.0064	137216
bin	0.0068	102912
bin	0.0072	154368
bin	0.0076	102912
bin	0.008	137216
bin	0.0084	102912
bin	0.0088	137216
bin	0.0092	120064
bin	0.0096	137216
bin	0.01	102912
bin	0.0104	137216
bin	0.0108	102912
bin	0.0112	137216
bin	0.0116	120064
bin	0.012	137216
bin	0.0124	102912
bin	0.0128	137216
bin	0.0132	102912
bin	0.0136	137216
bin	0.014	120064
bin	0.0144	120064
bin	0.0148	120064
bin	0.0152	120064
bin	0.0156	120064
bin	0.016	120064
bin	0.0164	137216
bin	0.0168	102912
bin	0.0172	137216
bin	0.0176	102912
bin	0.018	154368
bin	0.0184	102912
bin	0.0188	137216
bin	0.0192	102912
bin	0.0196	137216
bin	0.02	120064
bin	0.0204	137216
bin	0.0208	102912
bin	0.0212	137216
bin	0.0216	102912
bin	0.022	137216
bin	0.0224	120064
bin	0.0228	137216
bin	0.0232	102912
bin	0.0236	137216
bin	0.024	102912
bin	0.0244	154368
bin	0.0248	102912
bin	0.0252	137216
bin	0.0256	102912
bin	0.026	137216
bin	0.0264	120064
bin	0.0268	137216
bin	0.0272	102912
bin	0.0276	137216
bin	0.028	102912
bin	0.0284	137216
bin	0.0288	120064
bin	0.0292	137216
bin	0.0296	102912
bin	0.03	137216
bin	0.0304	102912
bin	0.0308	137216
bin	0.0312	120064
bin	0.0316	120064
bin	0.032	120064
bin	0.0324	120064
bin	0.0328	137216
bin	0.0332	102912
bin	0.0336	137216
bin	0.034	102912
bin	0.0344	137216
bin	0.0348	102912
bin	0.0352	154368
bin	0.0356	68608
bin	0.036	0
scalar EthNet.server.app[0] packetSent:count 2576
attr interpolationmode none
attr source packetSent
attr title "packets sent, count"
scalar EthNet.server.app[0] packetSent:sum(packetBytes) 1380736
attr interpolationmode none
attr source packetSent
attr title "packets sent, sum(packetBytes)"
scalar EthNet.client[0].lo[0].lo rcvdPkFromHl:count 0
attr interpolationmode none
attr source packetReceivedFromUpper
attr title "packets received from higher layer, count"
scalar EthNet.client[0].lo[0].lo rcvdPkFromHl:sum(packetBytes) 0
attr interpolationmode none
attr source packetReceivedFromUpper
attr title "packets received from higher layer, sum(packetBytes)"
scalar EthNet.client[0].lo[0].lo passedUpPk:count 0
attr interpolationmode none
attr source packetSentToUpper
attr title "packets passed to higher layer, count"
scalar EthNet.client[0].lo[0].lo passedUpPk:sum(packetBytes) 0
attr interpolationmode none
attr source packetSentToUpper
attr title "packets passed to higher layer, sum(packetBytes)"
scalar EthNet.client[0].eth[0].mac.queue packetPopped:count 1265
attr interpolationmode none
attr title "packet popped, count"
scalar EthNet.client[0].eth[0].mac.queue packetPopped:sum(packetBytes) 422810
attr interpolationmode none
attr title "packet popped, sum(packetBytes)"
statistic EthNet.client[0].eth[0].mac.queue queueingTime:histogram
field count 1265
field mean 0.00041015576284585
field stddev 0.00017415075724169
field min 0
field max 0.00068742
field sum 0.51884704
field sqrsum 0.0002511433101088
attr interpolationmode none
attr source queueingTime(packetPopped)
attr title "queueing times, histogram"
attr unit s
bin	-inf	0
bin	0	5
bin	1e-05	0
bin	2e-05	0
bin	3e-05	0
bin	4e-05	3
bin	5e-05	0
bin	6e-05	0
bin	7e-05	0
bin	8e-05	0
bin	9e-05	1
bin	0.0001	3
bin	0.00011	0
bin	0.00012	0
bin	0.00013	86
bin	0.00014	2
bin	0.00015	1
bin	0.00016	0
bin	0.00017	86
bin	0.00018	0
bin	0.00019	1
bin	0.0002	0
bin	0.00021	0
bin	0.00022	88
bin	0.00023	0
bin	0.00024	1
bin	0.00025	1
bin	0.00026	87
bin	0.00027	1
bin	0.00028	0
bin	0.00029	0
bin	0.0003	89
bin	0.00031	1
bin	0.00032	0
bin	0.00033	0
bin	0.00034	86
bin	0.00035	2
bin	0.00036	3
bin	0.00037	0
bin	0.00038	0
bin	0.00039	86
bin	0.0004	3
bin	0.00041	0
bin	0.00042	0
bin	0.00043	86
bin	0.00044	2
bin	0.00045	1
bin	0.00046	0
bin	0.00047	86
bin	0.00048	0
bin	0.00049	3
bin	0.0005	0
bin	0.00051	86
bin	0.00052	0
bin	0.00053	2
bin	0.00054	1
bin	0.00055	0
bin	0.00056	87
bin	0.00057	2
bin	0.00058	0
bin	0.00059	0
bin	0.0006	86
bin	0.00061	4
bin	0.00062	0
bin	0.00063	0
bin	0.00064	86
bin	0.00065	0
bin	0.00066	5
bin	0.00067	0
bin	0.00068	92
bin	0.00069	0
bin	0.0007	0
bin	0.00071	0
bin	0.00072	0
bin	0.00073	0
bin	0.00074	0
bin	0.00075	0
bin	0.00076	0
bin	0.00077	0
bin	0.00078	0
bin	0.00079	0
bin	0.0008	0
bin	0.00081	0
bin	0.00082	0
bin	0.00083	0
bin	0.00084	0
bin	0.00085	0
bin	0.00086	0
scalar EthNet.client[0].eth[0].mac.queue queueLength:max 21
attr interpolationmode sample-hold
attr source "count(packetPushed) - count(packetPopped) - count(packetRemoved) - count(packetDropped)"
attr title "queue length, max"
scalar EthNet.client[0].eth[0].mac.queue queueLength:timeavg 14.615111457371
attr interpolationmode sample-hold
attr source "count(packetPushed) - count(packetPopped) - count(packetRemoved) - count(packetDropped)"
attr title "queue length, timeavg"
scalar EthNet.client[0].eth[0].mac.queue packetPushed:count 1286
attr interpolationmode none
attr title "packet pushed, count"
scalar EthNet.client[0].eth[0].mac.queue packetPushed:sum(packetBytes) 427864
attr interpolationmode none
attr title "packet pushed, sum(packetBytes)"
scalar EthNet.client[0].eth[0].mac.queue packetDropQueueOverflow:count 0
attr interpolationmode none
attr source packetDropReasonIsQueueOverflow(packetDropped)
attr title "packet drops: queue overflow, count"
scalar EthNet.client[0].eth[0].mac.queue packetDropQueueOverflow:sum(packetBytes) 0
attr interpolationmode none
attr source packetDropReasonIsQueueOverflow(packetDropped)
attr title "packet drops: queue overflow, sum(packetBytes)"
scalar EthNet.client[0].eth[0].mac.queue packetRemoved:count 0
attr interpolationmode none
attr title "packets removed, count"
scalar EthNet.client[0].eth[0].mac.queue packetRemoved:sum(packetBytes) 0
attr interpolationmode none
attr title "packets removed, sum(packetBytes)"
scalar EthNet.client[0].eth[0].mac "simulated time" 1.03586259
scalar EthNet.client[0].eth[0].mac full-duplex 1
scalar EthNet.client[0].eth[0].mac "frames/sec sent" 1221.2044456591
scalar EthNet.client[0].eth[0].mac "frames/sec rcvd" 1226.9967197097
scalar EthNet.client[0].eth[0].mac "bits/sec sent" 3265375.1884215
scalar EthNet.client[0].eth[0].mac "bits/sec rcvd" 3211035.9347952
scalar EthNet.client[0].eth[0].mac "rx channel idle (%)" 100
scalar EthNet.client[0].eth[0].mac "rx channel utilization (%)" 0
scalar EthNet.client[0].eth[0].mac txPk:count 1265
attr interpolationmode none
attr source packetSentToLower
attr title "packets transmitted, count"
scalar EthNet.client[0].eth[0].mac txPk:sum(packetBytes) 422810
attr interpolationmode none
attr source packetSentToLower
attr title "packets transmitted, sum(packetBytes)"
scalar EthNet.client[0].eth[0].mac packetReceivedFromUpper:count 1286
attr interpolationmode none
attr source packetReceivedFromUpper
attr title "packet bytes from higher layer, count"
scalar EthNet.client[0].eth[0].mac packetReceivedFromUpper:sum(packetBytes) 424052
attr interpolationmode none
attr source packetReceivedFromUpper
attr title "packet bytes from higher layer, sum(packetBytes)"
scalar EthNet.client[0].eth[0].mac passedUpPk:count 1271
attr interpolationmode none
attr source packetSentToUpper
attr title "packets passed to higher layer, count"
scalar EthNet.client[0].eth[0].mac passedUpPk:sum(packetBytes) 415774
attr interpolationmode none
attr source packetSentToUpper
attr title "packets passed to higher layer, sum(packetBytes)"
scalar EthNet.client[0].eth[0].mac packetDropIncorrectlyReceived:count 0
attr interpolationmode none
attr source packetDropReasonIsIncorrectlyReceived(packetDropped)
attr title "packet drop: incorrectly received, count"
scalar EthNet.client[0].eth[0].mac packetDropIncorrectlyReceived:sum(packetBytes) 0
attr interpolationmode none
attr source packetDropReasonIsIncorrectlyReceived(packetDropped)
attr title "packet drop: incorrectly received, sum(packetBytes)"
scalar EthNet.client[0].eth[0].mac packetDropInterfaceDown:count 0
attr interpolationmode none
attr source packetDropReasonIsInterfaceDown(packetDropped)
attr title "packet drop: interface down, count"
scalar EthNet.client[0].eth[0].mac packetDropInterfaceDown:sum(packetBytes) 0
attr interpolationmode none
attr source packetDropReasonIsInterfaceDown(packetDropped)
attr title "packet drop: interface down, sum(packetBytes)"
scalar EthNet.client[0].eth[0].mac packetDropNotAddressedToUs:count 0
attr interpolationmode none
attr source packetDropReasonIsNotAddressedToUs(packetDropped)
attr title "packet drop: not addressed to us, count"
scalar EthNet.client[0].eth[0].mac packetDropNotAddressedToUs:sum(packetBytes) 0
attr interpolationmode none
attr source packetDropReasonIsNotAddressedToUs(packetDropped)
attr title "packet drop: not addressed to us, sum(packetBytes)"
scalar EthNet.client[0].eth[0].mac rxPausePkUnits:count 0
attr interpolationmode none
attr title "pause units received, count"
scalar EthNet.client[0].eth[0].mac rxPausePkUnits:sum 0
attr interpolationmode none
attr title "pause units received, sum"
scalar EthNet.client[0].eth[0].mac txPausePkUnits:count 0
attr interpolationmode none
attr title "pause units sent, count"
scalar EthNet.client[0].eth[0].mac txPausePkUnits:sum 0
attr interpolationmode none
attr title "pause units sent, sum"
scalar EthNet.client[0].eth[0].mac rxPkOk:count 1271
attr interpolationmode none
attr source rxPkOk
attr title "packets received OK, count"
scalar EthNet.client[0].eth[0].mac rxPkOk:sum(packetBytes) 415774
attr interpolationmode none
attr source rxPkOk
attr title "packets received OK, sum(packetBytes)"
scalar EthNet.client[0].eth[0].encap pauseSent:count 0
attr title "pause sent, count"
scalar EthNet.client[0].eth[0].encap pauseSent:sum 0
attr title "pause sent, sum"
scalar EthNet.client[0].eth[0].encap decapPk:count 1271
attr interpolationmode none
attr source decapPk
attr title "packets decapsulated, count"
scalar EthNet.client[0].eth[0].encap decapPk:sum(packetBytes) 392896
attr interpolationmode none
attr source decapPk
attr title "packets decapsulated, sum(packetBytes)"
scalar EthNet.client[0].eth[0].encap encapPk:count 1286
attr interpolationmode none
attr source encapPk
attr title "packets encapsulated, count"
scalar EthNet.client[0].eth[0].encap encapPk:sum(packetBytes) 400904
attr interpolationmode none
attr source encapPk
attr title "packets encapsulated, sum(packetBytes)"
scalar EthNet.client[0].ipv4.ip packetDropAddressResolutionFailed:count 0
attr interpolationmode none
attr source packetDropReasonIsAddressResolutionFailed(packetDropped)
attr title "packet drop: address resolution failed, count"
scalar EthNet.client[0].ipv4.ip packetDropAddressResolutionFailed:sum(packetBytes) 0
attr interpolationmode none
attr source packetDropReasonIsAddressResolutionFailed(packetDropped)
attr title "packet drop: address resolution failed, sum(packetBytes)"
scalar EthNet.client[0].ipv4.ip packetDropHopLimitReached:count 0
attr interpolationmode none
attr source packetDropReasonIsHopLimitReached(packetDropped)
attr title "packet drop: hop limit reached, count"
scalar EthNet.client[0].ipv4.ip packetDropHopLimitReached:sum(packetBytes) 0
attr interpolationmode none
attr source packetDropReasonIsHopLimitReached(packetDropped)
attr title "packet drop: hop limit reached, sum(packetBytes)"
scalar EthNet.client[0].ipv4.ip packetDropForwardingDisabled:count 0
attr interpolationmode none
attr source packetDropReasonIsForwardingDisabled(packetDropped)
attr title "packet drop: forwarding disabled, count"
scalar EthNet.client[0].ipv4.ip packetDropForwardingDisabled:sum(packetBytes) 0
attr interpolationmode none
attr source packetDropReasonIsForwardingDisabled(packetDropped)
attr title "packet drop: forwarding disabled, sum(packetBytes)"
scalar EthNet.client[0].ipv4.ip packetDropNoInterfaceFound:count 0
attr interpolationmode none
attr source packetDropReasonIsNoInterfaceFound(packetDropped)
attr title "packet drop: no interface found, count"
scalar EthNet.client[0].ipv4.ip packetDropNoInterfaceFound:sum(packetBytes) 0
attr interpolationmode none
attr source packetDropReasonIsNoInterfaceFound(packetDropped)
attr title "packet drop: no interface found, sum(packetBytes)"
scalar EthNet.client[0].ipv4.ip packetDropNoRouteFound:count 0
attr interpolationmode none
attr source packetDropReasonIsNoRouteFound(packetDropped)
attr title "packet drop: no route found, count"
scalar EthNet.client[0].ipv4.ip packetDropNoRouteFound:sum(packetBytes) 0
attr interpolationmode none
attr source packetDropReasonIsNoRouteFound(packetDropped)
attr title "packet drop: no route found, sum(packetBytes)"
scalar EthNet.client[0].ipv4.ip packetDropUndefined:count 0
attr interpolationmode none
attr source packetDropReasonIsUndefined(packetDropped)
attr title "packet drop: undefined, count"
scalar EthNet.client[0].ipv4.ip packetDropUndefined:sum(packetBytes) 0
attr interpolationmode none
attr source packetDropReasonIsUndefined(packetDropped)
attr title "packet drop: undefined, sum(packetBytes)"
scalar EthNet.client[0].ipv4.arp arpReplySent:count 0
attr source arpReplySent
attr title "ARP replies sent, count"
scalar EthNet.client[0].ipv4.arp arpReplySent:sum(packetBytes) 0
attr source arpReplySent
attr title "ARP replies sent, sum(packetBytes)"
scalar EthNet.client[0].ipv4.arp arpRequestSent:count 1
attr source arpRequestSent
attr title "ARP request sent, count"
scalar EthNet.client[0].ipv4.arp arpRequestSent:sum(packetBytes) 28
attr source arpRequestSent
attr title "ARP request sent, sum(packetBytes)"
scalar EthNet.client[0].ipv4.arp arpResolutionFailed:count 0
attr title "ARP failed resolutions, count"
scalar EthNet.client[0].ipv4.arp arpResolutionCompleted:count 1
attr title "ARP completed resolutions, count"
scalar EthNet.client[0].ipv4.arp arpResolutionInitiated:count 1
attr title "ARP initiated resolutions, count"
scalar EthNet.client[0].udp packetReceived:count 0
attr interpolationmode none
attr source packetReceived
attr title "packets received, count"
scalar EthNet.client[0].udp packetReceived:sum(packetBytes) 0
attr interpolationmode none
attr source packetReceived
attr title "packets received, sum(packetBytes)"
scalar EthNet.client[0].udp packetSent:count 0
attr interpolationmode none
attr source packetSent
attr title "packets sent, count"
scalar EthNet.client[0].udp packetSent:sum(packetBytes) 0
attr interpolationmode none
attr source packetSent
attr title "packets sent, sum(packetBytes)"
scalar EthNet.client[0].udp passedUpPk:count 0
attr interpolationmode none
attr source packetSentToUpper
attr title "packets passed up, count"
scalar EthNet.client[0].udp droppedPkWrongPort:count 0
attr interpolationmode none
attr source packetDropReasonIsNoPortFound(packetDropped)
attr title "packets dropped (wrong port), count"
scalar EthNet.client[0].udp droppedPkBadChecksum:count 0
attr interpolationmode none
attr source packetDropReasonIsIncorrectlyReceived(packetDropped)
attr title "packets dropped (checksum error), count"
scalar EthNet.client[0].app[0] bytesRcvd 338216
scalar EthNet.client[0].app[0] bytesSent 1000000
scalar EthNet.client[0].app[0] packetReceived:count 631
attr interpolationmode none
attr source packetReceived
attr title "packets received, count"
scalar EthNet.client[0].app[0] packetReceived:sum(packetBytes) 338216
attr interpolationmode none
attr source packetReceived
attr title "packets received, sum(packetBytes)"
statistic EthNet.client[0].app[0] endToEndDelay:histogram
field count 631
field mean 0.018237237939778
field stddev 0.010193130855102
field min 0.00010986
field max 0.0357914
field sum 11.50769714
field sqrsum 0.2753255583575
attr interpolationmode none
attr source dataAge(packetReceived)
attr title "end-to-end delay, histogram"
attr unit s
bin	-inf	0
bin	0	5
bin	0.0005	6
bin	0.001	4
bin	0.0015	10
bin	0.002	8
bin	0.0025	10
bin	0.003	9
bin	0.0035	8
bin	0.004	10
bin	0.0045	8
bin	0.005	9
bin	0.0055	10
bin	0.006	8
bin	0.0065	8
bin	0.007	10
bin	0.0075	9
bin	0.008	9
bin	0.0085	9
bin	0.009	8
bin	0.0095	11
bin	0.01	8
bin	0.0105	8
bin	0.011	10
bin	0.0115	9
bin	0.012	8
bin	0.0125	10
bin	0.013	8
bin	0.0135	9
bin	0.014	10
bin	0.0145	8
bin	0.015	10
bin	0.0155	8
bin	0.016	9
bin	0.0165	10
bin	0.017	8
bin	0.0175	8
bin	0.018	11
bin	0.0185	8
bin	0.019	8
bin	0.0195	10
bin	0.02	9
bin	0.0205	9
bin	0.021	9
bin	0.0215	8
bin	0.022	10
bin	0.0225	9
bin	0.023	8
bin	0.0235	10
bin	0.024	8
bin	0.0245	9
bin	0.025	10
bin	0.0255	8
bin	0.026	9
bin	0.0265	10
bin	0.027	8
bin	0.0275	10
bin	0.028	8
bin	0.0285	9
bin	0.029	10
bin	0.0295	8
bin	0.03	8
bin	0.0305	10
bin	0.031	9
bin	0.0315	8
bin	0.032	10
bin	0.0325	8
bin	0.033	10
bin	0.0335	9
bin	0.034	8
bin	0.0345	10
bin	0.035	9
bin	0.0355	6
bin	0.036	0
bin	0.0365	0
bin	0.037	0
bin	0.0375	0
bin	0.038	0
bin	0.0385	0
bin	0.039	0
bin	0.0395	0
bin	0.04	0
bin	0.0405	0
bin	0.041	0
bin	0.0415	0
bin	0.042	0
bin	0.0425	0
bin	0.043	0
bin	0.0435	0
bin	0.044	0
bin	0.0445	0
bin	0.045	0
statistic EthNet.client[0].app[0] endToEndDelay:weightedHistogram
field count 631
field mean 0.018237237939778
field stddev 0.010193130855102
field min 0.00010986
field max 0.0357914
field weights 2705728
field weightedSum 49345.00533632
field sqrSumWeights 11602161664
field weightedSqrSum 1180.595994237
attr interpolationmode none
attr source dataAge(packetReceived)
attr title "end-to-end delay, weightedHistogram"
attr unit s
bin	-inf	0
bin	0	21440
bin	0.0005	25728
bin	0.001	17152
bin	0.0015	42880
bin	0.002	34304
bin	0.0025	42880
bin	0.003	38592
bin	0.0035	34304
bin	0.004	42880
bin	0.0045	34304
bin	0.005	38592
bin	0.0055	42880
bin	0.006	34304
bin	0.0065	34304
bin	0.007	42880
bin	0.0075	38592
bin	0.008	38592
bin	0.0085	38592
bin	0.009	34304
bin	0.0095	47168
bin	0.01	34304
bin	0.0105	34304
bin	0.011	42880
bin	0.0115	38592
bin	0.012	34304
bin	0.0125	42880
bin	0.013	34304
bin	0.0135	38592
bin	0.014	42880
bin	0.0145	34304
bin	0.015	42880
bin	0.0155	34304
bin	0.016	38592
bin	0.0165	42880
bin	0.017	34304
bin	0.0175	34304
bin	0.018	47168
bin	0.0185	34304
bin	0.019	34304
bin	0.0195	42880
bin	0.02	38592
bin	0.0205	38592
bin	0.021	38592
bin	0.0215	34304
bin	0.022	42880
bin	0.0225	38592
bin	0.023	34304
bin	0.0235	42880
bin	0.024	34304
bin	0.0245	38592
bin	0.025	42880
bin	0.0255	34304
bin	0.026	38592
bin	0.0265	42880
bin	0.027	34304
bin	0.0275	42880
bin	0.028	34304
bin	0.0285	38592
bin	0.029	42880
bin	0.0295	34304
bin	0.03	34304
bin	0.0305	42880
bin	0.031	38592
bin	0.0315	34304
bin	0.032	42880
bin	0.0325	34304
bin	0.033	42880
bin	0.0335	38592
bin	0.034	34304
bin	0.0345	42880
bin	0.035	38592
bin	0.0355	25728
bin	0.036	0
bin	0.0365	0
bin	0.037	0
bin	0.0375	0
bin	0.038	0
bin	0.0385	0
bin	0.039	0
bin	0.0395	0
bin	0.04	0
bin	0.0405	0
bin	0.041	0
bin	0.0415	0
bin	0.042	0
bin	0.0425	0
bin	0.043	0
bin	0.0435	0
bin	0.044	0
bin	0.0445	0
bin	0.045	0
scalar EthNet.client[0].app[0] packetSent:count 1
attr interpolationmode none
attr source packetSent
attr title "packets sent, count"
scalar EthNet.client[0].app[0] packetSent:sum(packetBytes) 1000000
attr interpolationmode none
attr source packetSent
attr title "packets sent, sum(packetBytes)"
scalar EthNet.client[1].lo[0].lo rcvdPkFromHl:count 0
attr interpolationmode none
attr source packetReceivedFromUpper
attr title "packets received from higher layer, count"
scalar EthNet.client[1].lo[0].lo rcvdPkFromHl:sum(packetBytes) 0
attr interpolationmode none
attr source packetReceivedFromUpper
attr title "packets received from higher layer, sum(packetBytes)"
scalar EthNet.client[1].lo[0].lo passedUpPk:count 0
attr interpolationmode none
attr source packetSentToUpper
attr title "packets passed to higher layer, count"
scalar EthNet.client[1].lo[0].lo passedUpPk:sum(packetBytes) 0
attr interpolationmode none
attr source packetSentToUpper
attr title "packets passed to higher layer, sum(packetBytes)"
scalar EthNet.client[1].eth[0].mac.queue packetPopped:count 1265
attr interpolationmode none
attr title "packet popped, count"
scalar EthNet.client[1].eth[0].mac.queue packetPopped:sum(packetBytes) 422810
attr interpolationmode none
attr title "packet popped, sum(packetBytes)"
statistic EthNet.client[1].eth[0].mac.queue queueingTime:histogram
field count 1265
field mean 0.00041015576284585
field stddev 0.00017415075724169
field min 0
field max 0.00068742
field sum 0.51884704
field sqrsum 0.0002511433101088
attr interpolationmode none
attr source queueingTime(packetPopped)
attr title "queueing times, histogram"
attr unit s
bin	-inf	0
bin	0	5
bin	1e-05	0
bin	2e-05	0
bin	3e-05	0
bin	4e-05	3
bin	5e-05	0
bin	6e-05	0
bin	7e-05	0
bin	8e-05	0
bin	9e-05	1
bin	0.0001	3
bin	0.00011	0
bin	0.00012	0
bin	0.00013	86
bin	0.00014	2
bin	0.00015	1
bin	0.00016	0
bin	0.00017	86
bin	0.00018	0
bin	0.00019	1
bin	0.0002	0
bin	0.00021	0
bin	0.00022	88
bin	0.00023	0
bin	0.00024	1
bin	0.00025	1
bin	0.00026	87
bin	0.00027	1
bin	0.00028	0
bin	0.00029	0
bin	0.0003	89
bin	0.00031	1
bin	0.00032	0
bin	0.00033	0
bin	0.00034	86
bin	0.00035	2
bin	0.00036	3
bin	0.00037	0
bin	0.00038	0
bin	0.00039	86
bin	0.0004	3
bin	0.00041	0
bin	0.00042	0
bin	0.00043	86
bin	0.00044	2
bin	0.00045	1
bin	0.00046	0
bin	0.00047	86
bin	0.00048	0
bin	0.00049	3
bin	0.0005	0
bin	0.00051	86
bin	0.00052	0
bin	0.00053	2
bin	0.00054	1
bin	0.00055	0
bin	0.00056	87
bin	0.00057	2
bin	0.00058	0
bin	0.00059	0
bin	0.0006	86
bin	0.00061	4
bin	0.00062	0
bin	0.00063	0
bin	0.00064	86
bin	0.00065	0
bin	0.00066	5
bin	0.00067	0
bin	0.00068	92
bin	0.00069	0
bin	0.0007	0
bin	0.00071	0
bin	0.00072	0
bin	0.00073	0
bin	0.00074	0
bin	0.00075	0
bin	0.00076	0
bin	0.00077	0
bin	0.00078	0
bin	0.00079	0
bin	0.0008	0
bin	0.00081	0
bin	0.00082	0
bin	0.00083	0
bin	0.00084	0
bin	0.00085	0
bin	0.00086	0
scalar EthNet.client[1].eth[0].mac.queue queueLength:max 21
attr interpolationmode sample-hold
attr source "count(packetPushed) - count(packetPopped) - count(packetRemoved) - count(packetDropped)"
attr title "queue length, max"
scalar EthNet.client[1].eth[0].mac.queue queueLength:timeavg 14.615111457371
attr interpolationmode sample-hold
attr source "count(packetPushed) - count(packetPopped) - count(packetRemoved) - count(packetDropped)"
attr title "queue length, timeavg"
scalar EthNet.client[1].eth[0].mac.queue packetPushed:count 1286
attr interpolationmode none
attr title "packet pushed, count"
scalar EthNet.client[1].eth[0].mac.queue packetPushed:sum(packetBytes) 427864
attr interpolationmode none
attr title "packet pushed, sum(packetBytes)"
scalar EthNet.client[1].eth[0].mac.queue packetDropQueueOverflow:count 0
attr interpolationmode none
attr source packetDropReasonIsQueueOverflow(packetDropped)
attr title "packet drops: queue overflow, count"
scalar EthNet.client[1].eth[0].mac.queue packetDropQueueOverflow:sum(packetBytes) 0
attr interpolationmode none
attr source packetDropReasonIsQueueOverflow(packetDropped)
attr title "packet drops: queue overflow, sum(packetBytes)"
scalar EthNet.client[1].eth[0].mac.queue packetRemoved:count 0
attr interpolationmode none
attr title "packets removed, count"
scalar EthNet.client[1].eth[0].mac.queue packetRemoved:sum(packetBytes) 0
attr interpolationmode none
attr title "packets removed, sum(packetBytes)"
scalar EthNet.client[1].eth[0].mac "simulated time" 1.03586259
scalar EthNet.client[1].eth[0].mac full-duplex 1
scalar EthNet.client[1].eth[0].mac "frames/sec sent" 1221.2044456591
scalar EthNet.client[1].eth[0].mac "frames/sec rcvd" 1226.9967197097
scalar EthNet.client[1].eth[0].mac "bits/sec sent" 3265375.1884215
scalar EthNet.client[1].eth[0].mac "bits/sec rcvd" 3211035.9347952
scalar EthNet.client[1].eth[0].mac "rx channel idle (%)" 100
scalar EthNet.client[1].eth[0].mac "rx channel utilization (%)" 0
scalar EthNet.client[1].eth[0].mac txPk:count 1265
attr interpolationmode none
attr source packetSentToLower
attr title "packets transmitted, count"
scalar EthNet.client[1].eth[0].mac txPk:sum(packetBytes) 422810
attr interpolationmode none
attr source packetSentToLower
attr title "packets transmitted, sum(packetBytes)"
scalar EthNet.client[1].eth[0].mac packetReceivedFromUpper:count 1286
attr interpolationmode none
attr source packetReceivedFromUpper
attr title "packet bytes from higher layer, count"
scalar EthNet.client[1].eth[0].mac packetReceivedFromUpper:sum(packetBytes) 424052
attr interpolationmode none
attr source packetReceivedFromUpper
attr title "packet bytes from higher layer, sum(packetBytes)"
scalar EthNet.client[1].eth[0].mac passedUpPk:count 1271
attr interpolationmode none
attr source packetSentToUpper
attr title "packets passed to higher layer, count"
scalar EthNet.client[1].eth[0].mac passedUpPk:sum(packetBytes) 415774
attr interpolationmode none
attr source packetSentToUpper
attr title "packets passed to higher layer, sum(packetBytes)"
scalar EthNet.client[1].eth[0].mac packetDropIncorrectlyReceived:count 0
attr interpolationmode none
attr source packetDropReasonIsIncorrectlyReceived(packetDropped)
attr title "packet drop: incorrectly received, count"
scalar EthNet.client[1].eth[0].mac packetDropIncorrectlyReceived:sum(packetBytes) 0
attr interpolationmode none
attr source packetDropReasonIsIncorrectlyReceived(packetDropped)
attr title "packet drop: incorrectly received, sum(packetBytes)"
scalar EthNet.client[1].eth[0].mac packetDropInterfaceDown:count 0
attr interpolationmode none
attr source packetDropReasonIsInterfaceDown(packetDropped)
attr title "packet drop: interface down, count"
scalar EthNet.client[1].eth[0].mac packetDropInterfaceDown:sum(packetBytes) 0
attr interpolationmode none
attr source packetDropReasonIsInterfaceDown(packetDropped)
attr title "packet drop: interface down, sum(packetBytes)"
scalar EthNet.client[1].eth[0].mac packetDropNotAddressedToUs:count 0
attr interpolationmode none
attr source packetDropReasonIsNotAddressedToUs(packetDropped)
attr title "packet drop: not addressed to us, count"
scalar EthNet.client[1].eth[0].mac packetDropNotAddressedToUs:sum(packetBytes) 0
attr interpolationmode none
attr source packetDropReasonIsNotAddressedToUs(packetDropped)
attr title "packet drop: not addressed to us, sum(packetBytes)"
scalar EthNet.client[1].eth[0].mac rxPausePkUnits:count 0
attr interpolationmode none
attr title "pause units received, count"
scalar EthNet.client[1].eth[0].mac rxPausePkUnits:sum 0
attr interpolationmode none
attr title "pause units received, sum"
scalar EthNet.client[1].eth[0].mac txPausePkUnits:count 0
attr interpolationmode none
attr title "pause units sent, count"
scalar EthNet.client[1].eth[0].mac txPausePkUnits:sum 0
attr interpolationmode none
attr title "pause units sent, sum"
scalar EthNet.client[1].eth[0].mac rxPkOk:count 1271
attr interpolationmode none
attr source rxPkOk
attr title "packets received OK, count"
scalar EthNet.client[1].eth[0].mac rxPkOk:sum(packetBytes) 415774
attr interpolationmode none
attr source rxPkOk
attr title "packets received OK, sum(packetBytes)"
scalar EthNet.client[1].eth[0].encap pauseSent:count 0
attr title "pause sent, count"
scalar EthNet.client[1].eth[0].encap pauseSent:sum 0
attr title "pause sent, sum"
scalar EthNet.client[1].eth[0].encap decapPk:count 1271
attr interpolationmode none
attr source decapPk
attr title "packets decapsulated, count"
scalar EthNet.client[1].eth[0].encap decapPk:sum(packetBytes) 392896
attr interpolationmode none
attr source decapPk
attr title "packets decapsulated, sum(packetBytes)"
scalar EthNet.client[1].eth[0].encap encapPk:count 1286
attr interpolationmode none
attr source encapPk
attr title "packets encapsulated, count"
scalar EthNet.client[1].eth[0].encap encapPk:sum(packetBytes) 400904
attr interpolationmode none
attr source encapPk
attr title "packets encapsulated, sum(packetBytes)"
scalar EthNet.client[1].ipv4.ip packetDropAddressResolutionFailed:count 0
attr interpolationmode none
attr source packetDropReasonIsAddressResolutionFailed(packetDropped)
attr title "packet drop: address resolution failed, count"
scalar EthNet.client[1].ipv4.ip packetDropAddressResolutionFailed:sum(packetBytes) 0
attr interpolationmode none
attr source packetDropReasonIsAddressResolutionFailed(packetDropped)
attr title "packet drop: address resolution failed, sum(packetBytes)"
scalar EthNet.client[1].ipv4.ip packetDropHopLimitReached:count 0
attr interpolationmode none
attr source packetDropReasonIsHopLimitReached(packetDropped)
attr title "packet drop: hop limit reached, count"
scalar EthNet.client[1].ipv4.ip packetDropHopLimitReached:sum(packetBytes) 0
attr interpolationmode none
attr source packetDropReasonIsHopLimitReached(packetDropped)
attr title "packet drop: hop limit reached, sum(packetBytes)"
scalar EthNet.client[1].ipv4.ip packetDropForwardingDisabled:count 0
attr interpolationmode none
attr source packetDropReasonIsForwardingDisabled(packetDropped)
attr title "packet drop: forwarding disabled, count"
scalar EthNet.client[1].ipv4.ip packetDropForwardingDisabled:sum(packetBytes) 0
attr interpolationmode none
attr source packetDropReasonIsForwardingDisabled(packetDropped)
attr title "packet drop: forwarding disabled, sum(packetBytes)"
scalar EthNet.client[1].ipv4.ip packetDropNoInterfaceFound:count 0
attr interpolationmode none
attr source packetDropReasonIsNoInterfaceFound(packetDropped)
attr title "packet drop: no interface found, count"
scalar EthNet.client[1].ipv4.ip packetDropNoInterfaceFound:sum(packetBytes) 0
attr interpolationmode none
attr source packetDropReasonIsNoInterfaceFound(packetDropped)
attr title "packet drop: no interface found, sum(packetBytes)"
scalar EthNet.client[1].ipv4.ip packetDropNoRouteFound:count 0
attr interpolationmode none
attr source packetDropReasonIsNoRouteFound(packetDropped)
attr title "packet drop: no route found, count"
scalar EthNet.client[1].ipv4.ip packetDropNoRouteFound:sum(packetBytes) 0
attr interpolationmode none
attr source packetDropReasonIsNoRouteFound(packetDropped)
attr title "packet drop: no route found, sum(packetBytes)"
scalar EthNet.client[1].ipv4.ip packetDropUndefined:count 0
attr interpolationmode none
attr source packetDropReasonIsUndefined(packetDropped)
attr title "packet drop: undefined, count"
scalar EthNet.client[1].ipv4.ip packetDropUndefined:sum(packetBytes) 0
attr interpolationmode none
attr source packetDropReasonIsUndefined(packetDropped)
attr title "packet drop: undefined, sum(packetBytes)"
scalar EthNet.client[1].ipv4.arp arpReplySent:count 0
attr source arpReplySent
attr title "ARP replies sent, count"
scalar EthNet.client[1].ipv4.arp arpReplySent:sum(packetBytes) 0
attr source arpReplySent
attr title "ARP replies sent, sum(packetBytes)"
scalar EthNet.client[1].ipv4.arp arpRequestSent:count 1
attr source arpRequestSent
attr title "ARP request sent, count"
scalar EthNet.client[1].ipv4.arp arpRequestSent:sum(packetBytes) 28
attr source arpRequestSent
attr title "ARP request sent, sum(packetBytes)"
scalar EthNet.client[1].ipv4.arp arpResolutionFailed:count 0
attr title "ARP failed resolutions, count"
scalar EthNet.client[1].ipv4.arp arpResolutionCompleted:count 1
attr title "ARP completed resolutions, count"
scalar EthNet.client[1].ipv4.arp arpResolutionInitiated:count 1
attr title "ARP initiated resolutions, count"
scalar EthNet.client[1].udp packetReceived:count 0
attr interpolationmode none
attr source packetReceived
attr title "packets received, count"
scalar EthNet.client[1].udp packetReceived:sum(packetBytes) 0
attr interpolationmode none
attr source packetReceived
attr title "packets received, sum(packetBytes)"
scalar EthNet.client[1].udp packetSent:count 0
attr interpolationmode none
attr source packetSent
attr title "packets sent, count"
scalar EthNet.client[1].udp packetSent:sum(packetBytes) 0
attr interpolationmode none
attr source packetSent
attr title "packets sent, sum(packetBytes)"
scalar EthNet.client[1].udp passedUpPk:count 0
attr interpolationmode none
attr source packetSentToUpper
attr title "packets passed up, count"
scalar EthNet.client[1].udp droppedPkWrongPort:count 0
attr interpolationmode none
attr source packetDropReasonIsNoPortFound(packetDropped)
attr title "packets dropped (wrong port), count"
scalar EthNet.client[1].udp droppedPkBadChecksum:count 0
attr interpolationmode none
attr source packetDropReasonIsIncorrectlyReceived(packetDropped)
attr title "packets dropped (checksum error), count"
scalar EthNet.client[1].app[0] bytesRcvd 338216
scalar EthNet.client[1].app[0] bytesSent 1000000
scalar EthNet.client[1].app[0] packetReceived:count 631
attr interpolationmode none
attr source packetReceived
attr title "packets received, count"
scalar EthNet.client[1].app[0] packetReceived:sum(packetBytes) 338216
attr interpolationmode none
attr source packetReceived
attr title "packets received, sum(packetBytes)"
statistic EthNet.client[1].app[0] endToEndDelay:histogram
field count 631
field mean 0.018237237939778
field stddev 0.010193130855102
field min 0.00010986
field max 0.0357914
field sum 11.50769714
field sqrsum 0.2753255583575
attr interpolationmode none
attr source dataAge(packetReceived)
attr title "end-to-end delay, histogram"
attr unit s
bin	-inf	0
bin	0	5
bin	0.0005	6
bin	0.001	4
bin	0.0015	10
bin	0.002	8
bin	0.0025	10
bin	0.003	9
bin	0.0035	8
bin	0.004	10
bin	0.0045	8
bin	0.005	9
bin	0.0055	10
bin	0.006	8
bin	0.0065	8
bin	0.007	10
bin	0.0075	9
bin	0.008	9
bin	0.0085	9
bin	0.009	8
bin	0.0095	11
bin	0.01	8
bin	0.0105	8
bin	0.011	10
bin	0.0115	9
bin	0.012	8
bin	0.0125	10
bin	0.013	8
bin	0.0135	9
bin	0.014	10
bin	0.0145	8
bin	0.015	10
bin	0.0155	8
bin	0.016	9
bin	0.0165	10
bin	0.017	8
bin	0.0175	8
bin	0.018	11
bin	0.0185	8
bin	0.019	8
bin	0.0195	10
bin	0.02	9
bin	0.0205	9
bin	0.021	9
bin	0.0215	8
bin	0.022	10
bin	0.0225	9
bin	0.023	8
bin	0.0235	10
bin	0.024	8
bin	0.0245	9
bin	0.025	10
bin	0.0255	8
bin	0.026	9
bin	0.0265	10
bin	0.027	8
bin	0.0275	10
bin	0.028	8
bin	0.0285	9
bin	0.029	10
bin	0.0295	8
bin	0.03	8
bin	0.0305	10
bin	0.031	9
bin	0.0315	8
bin	0.032	10
bin	0.0325	8
bin	0.033	10
bin	0.0335	9
bin	0.034	8
bin	0.0345	10
bin	0.035	9
bin	0.0355	6
bin	0.036	0
bin	0.0365	0
bin	0.037	0
bin	0.0375	0
bin	0.038	0
bin	0.0385	0
bin	0.039	0
bin	0.0395	0
bin	0.04	0
bin	0.0405	0
bin	0.041	0
bin	0.0415	0
bin	0.042	0
bin	0.0425	0
bin	0.043	0
bin	0.0435	0
bin	0.044	0
bin	0.0445	0
bin	0.045	0
statistic EthNet.client[1].app[0] endToEndDelay:weightedHistogram
field count 631
field mean 0.018237237939778
field stddev 0.010193130855102
field min 0.00010986
field max 0.0357914
field weights 2705728
field weightedSum 49345.00533632
field sqrSumWeights 11602161664
field weightedSqrSum 1180.595994237
attr interpolationmode none
attr source dataAge(packetReceived)
attr title "end-to-end delay, weightedHistogram"
attr unit s
bin	-inf	0
bin	0	21440
bin	0.0005	25728
bin	0.001	17152
bin	0.0015	42880
bin	0.002	34304
bin	0.0025	42880
bin	0.003	38592
bin	0.0035	34304
bin	0.004	42880
bin	0.0045	34304
bin	0.005	38592
bin	0.0055	42880
bin	0.006	34304
bin	0.0065	34304
bin	0.007	42880
bin	0.0075	38592
bin	0.008	38592
bin	0.0085	38592
bin	0.009	34304
bin	0.0095	47168
bin	0.01	34304
bin	0.0105	34304
bin	0.011	42880
bin	0.0115	38592
bin	0.012	34304
bin	0.0125	42880
bin	0.013	34304
bin	0.0135	38592
bin	0.014	42880
bin	0.0145	34304
bin	0.015	42880
bin	0.0155	34304
bin	0.016	38592
bin	0.0165	42880
bin	0.017	34304
bin	0.0175	34304
bin	0.018	47168
bin	0.0185	34304
bin	0.019	34304
bin	0.0195	42880
bin	0.02	38592
bin	0.0205	38592
bin	0.021	38592
bin	0.0215	34304
bin	0.022	42880
bin	0.0225	38592
bin	0.023	34304
bin	0.0235	42880
bin	0.024	34304
bin	0.0245	38592
bin	0.025	42880
bin	0.0255	34304
bin	0.026	38592
bin	0.0265	42880
bin	0.027	34304
bin	0.0275	42880
bin	0.028	34304
bin	0.0285	38592
bin	0.029	42880
bin	0.0295	34304
bin	0.03	34304
bin	0.0305	42880
bin	0.031	38592
bin	0.0315	34304
bin	0.032	42880
bin	0.0325	34304
bin	0.033	42880
bin	0.0335	38592
bin	0.034	34304
bin	0.0345	42880
bin	0.035	38592
bin	0.0355	25728
bin	0.036	0
bin	0.0365	0
bin	0.037	0
bin	0.0375	0
bin	0.038	0
bin	0.0385	0
bin	0.039	0
bin	0.0395	0
bin	0.04	0
bin	0.0405	0
bin	0.041	0
bin	0.0415	0
bin	0.042	0
bin	0.0425	0
bin	0.043	0
bin	0.0435	0
bin	0.044	0
bin	0.0445	0
bin	0.045	0
scalar EthNet.client[1].app[0] packetSent:count 1
attr interpolationmode none
attr source packetSent
attr title "packets sent, count"
scalar EthNet.client[1].app[0] packetSent:sum(packetBytes) 1000000
attr interpolationmode none
attr source packetSent
attr title "packets sent, sum(packetBytes)"
scalar EthNet.client[2].lo[0].lo rcvdPkFromHl:count 0
attr interpolationmode none
attr source packetReceivedFromUpper
attr title "packets received from higher layer, count"
scalar EthNet.client[2].lo[0].lo rcvdPkFromHl:sum(packetBytes) 0
attr interpolationmode none
attr source packetReceivedFromUpper
attr title "packets received from higher layer, sum(packetBytes)"
scalar EthNet.client[2].lo[0].lo passedUpPk:count 0
attr interpolationmode none
attr source packetSentToUpper
attr title "packets passed to higher layer, count"
scalar EthNet.client[2].lo[0].lo passedUpPk:sum(packetBytes) 0
attr interpolationmode none
attr source packetSentToUpper
attr title "packets passed to higher layer, sum(packetBytes)"
scalar EthNet.client[2].eth[0].mac.queue packetPopped:count 1265
attr interpolationmode none
attr title "packet popped, count"
scalar EthNet.client[2].eth[0].mac.queue packetPopped:sum(packetBytes) 422810
attr interpolationmode none
attr title "packet popped, sum(packetBytes)"
statistic EthNet.client[2].eth[0].mac.queue queueingTime:histogram
field count 1265
field mean 0.00041015576284585
field stddev 0.00017415075724169
field min 0
field max 0.00068742
field sum 0.51884704
field sqrsum 0.0002511433101088
attr interpolationmode none
attr source queueingTime(packetPopped)
attr title "queueing times, histogram"
attr unit s
bin	-inf	0
bin	0	5
bin	1e-05	0
bin	2e-05	0
bin	3e-05	0
bin	4e-05	3
bin	5e-05	0
bin	6e-05	0
bin	7e-05	0
bin	8e-05	0
bin	9e-05	1
bin	0.0001	3
bin	0.00011	0
bin	0.00012	0
bin	0.00013	86
bin	0.00014	2
bin	0.00015	1
bin	0.00016	0
bin	0.00017	86
bin	0.00018	0
bin	0.00019	1
bin	0.0002	0
bin	0.00021	0
bin	0.00022	88
bin	0.00023	0
bin	0.00024	1
bin	0.00025	1
bin	0.00026	87
bin	0.00027	1
bin	0.00028	0
bin	0.00029	0
bin	0.0003	89
bin	0.00031	1
bin	0.00032	0
bin	0.00033	0
bin	0.00034	86
bin	0.00035	2
bin	0.00036	3
bin	0.00037	0
bin	0.00038	0
bin	0.00039	86
bin	0.0004	3
bin	0.00041	0
bin	0.00042	0
bin	0.00043	86
bin	0.00044	2
bin	0.00045	1
bin	0.00046	0
bin	0.00047	86
bin	0.00048	0
bin	0.00049	3
bin	0.0005	0
bin	0.00051	86
bin	0.00052	0
bin	0.00053	2
bin	0.00054	1
bin	0.00055	0
bin	0.00056	87
bin	0.00057	2
bin	0.00058	0
bin	0.00059	0
bin	0.0006	86
bin	0.00061	4
bin	0.00062	0
bin	0.00063	0
bin	0.00064	86
bin	0.00065	0
bin	0.00066	5
bin	0.00067	0
bin	0.00068	92
bin	0.00069	0
bin	0.0007	0
bin	0.00071	0
bin	0.00072	0
bin	0.00073	0
bin	0.00074	0
bin	0.00075	0
bin	0.00076	0
bin	0.00077	0
bin	0.00078	0
bin	0.00079	0
bin	0.0008	0
bin	0.00081	0
bin	0.00082	0
bin	0.00083	0
bin	0.00084	0
bin	0.00085	0
bin	0.00086	0
scalar EthNet.client[2].eth[0].mac.queue queueLength:max 21
attr interpolationmode sample-hold
[...]
field count 631
field mean 0.018237237939778
field stddev 0.010193130855102
field min 0.00010986
field max 0.0357914
field weights 2705728
field weightedSum 49345.00533632
field sqrSumWeights 11602161664
field weightedSqrSum 1180.595994237
attr interpolationmode none
attr source dataAge(packetReceived)
attr title "end-to-end delay, weightedHistogram"
attr unit s
bin	-inf	0
bin	0	21440
bin	0.0005	25728
bin	0.001	17152
bin	0.0015	42880
bin	0.002	34304
bin	0.0025	42880
bin	0.003	38592
bin	0.0035	34304
bin	0.004	42880
bin	0.0045	34304
bin	0.005	38592
bin	0.0055	42880
bin	0.006	34304
bin	0.0065	34304
bin	0.007	42880
bin	0.0075	38592
bin	0.008	38592
bin	0.0085	38592
bin	0.009	34304
bin	0.0095	47168
bin	0.01	34304
bin	0.0105	34304
bin	0.011	42880
bin	0.0115	38592
bin	0.012	34304
bin	0.0125	42880
bin	0.013	34304
bin	0.0135	38592
bin	0.014	42880
bin	0.0145	34304
bin	0.015	42880
bin	0.0155	34304
bin	0.016	38592
bin	0.0165	42880
bin	0.017	34304
bin	0.0175	34304
bin	0.018	47168
bin	0.0185	34304
bin	0.019	34304
bin	0.0195	42880
bin	0.02	38592
bin	0.0205	38592
bin	0.021	38592
bin	0.0215	34304
bin	0.022	42880
bin	0.0225	38592
bin	0.023	34304
bin	0.0235	42880
bin	0.024	34304
bin	0.0245	38592
bin	0.025	42880
bin	0.0255	34304
bin	0.026	38592
bin	0.0265	42880
bin	0.027	34304
bin	0.0275	42880
bin	0.028	34304
bin	0.0285	38592
bin	0.029	42880
bin	0.0295	34304
bin	0.03	34304
bin	0.0305	42880
bin	0.031	38592
bin	0.0315	34304
bin	0.032	42880
bin	0.0325	34304
bin	0.033	42880
bin	0.0335	38592
bin	0.034	34304
bin	0.0345	42880
bin	0.035	38592
bin	0.0355	25728
bin	0.036	0
bin	0.0365	0
bin	0.037	0
bin	0.0375	0
bin	0.038	0
bin	0.0385	0
bin	0.039	0
bin	0.0395	0
bin	0.04	0
bin	0.0405	0
bin	0.041	0
bin	0.0415	0
bin	0.042	0
bin	0.0425	0
bin	0.043	0
bin	0.0435	0
bin	0.044	0
bin	0.0445	0
bin	0.045	0
scalar EthNet.client[2].app[0] packetSent:count 1
attr interpolationmode none
attr source packetSent
attr title "packets sent, count"
scalar EthNet.client[2].app[0] packetSent:sum(packetBytes) 1000000
attr interpolationmode none
attr source packetSent
attr title "packets sent, sum(packetBytes)"
scalar EthNet.client[3].lo[0].lo rcvdPkFromHl:count 0
attr interpolationmode none
attr source packetReceivedFromUpper
attr title "packets received from higher layer, count"
scalar EthNet.client[3].lo[0].lo rcvdPkFromHl:sum(packetBytes) 0
attr interpolationmode none
attr source packetReceivedFromUpper
attr title "packets received from higher layer, sum(packetBytes)"
scalar EthNet.client[3].lo[0].lo passedUpPk:count 0
attr interpolationmode none
attr source packetSentToUpper
attr title "packets passed to higher layer, count"
scalar EthNet.client[3].lo[0].lo passedUpPk:sum(packetBytes) 0
attr interpolationmode none
attr source packetSentToUpper
attr title "packets passed to higher layer, sum(packetBytes)"
scalar EthNet.client[3].eth[0].mac.queue packetPopped:count 1265
attr interpolationmode none
attr title "packet popped, count"
scalar EthNet.client[3].eth[0].mac.queue packetPopped:sum(packetBytes) 422810
attr interpolationmode none
attr title "packet popped, sum(packetBytes)"
statistic EthNet.client[3].eth[0].mac.queue queueingTime:histogram
field count 1265
field mean 0.00041015576284585
field stddev 0.00017415075724169
field min 0
field max 0.00068742
field sum 0.51884704
field sqrsum 0.0002511433101088
attr interpolationmode none
attr source queueingTime(packetPopped)
attr title "queueing times, histogram"
attr unit s
bin	-inf	0
bin	0	5
bin	1e-05	0
bin	2e-05	0
bin	3e-05	0
bin	4e-05	3
bin	5e-05	0
bin	6e-05	0
bin	7e-05	0
bin	8e-05	0
bin	9e-05	1
bin	0.0001	3
bin	0.00011	0
bin	0.00012	0
bin	0.00013	86
bin	0.00014	2
bin	0.00015	1
bin	0.00016	0
bin	0.00017	86
bin	0.00018	0
bin	0.00019	1
bin	0.0002	0
bin	0.00021	0
bin	0.00022	88
bin	0.00023	0
bin	0.00024	1
bin	0.00025	1
bin	0.00026	87
bin	0.00027	1
bin	0.00028	0
bin	0.00029	0
bin	0.0003	89
bin	0.00031	1
bin	0.00032	0
bin	0.00033	0
bin	0.00034	86
bin	0.00035	2
bin	0.00036	3
bin	0.00037	0
bin	0.00038	0
bin	0.00039	86
bin	0.0004	3
bin	0.00041	0
bin	0.00042	0
bin	0.00043	86
bin	0.00044	2
bin	0.00045	1
bin	0.00046	0
bin	0.00047	86
bin	0.00048	0
bin	0.00049	3
bin	0.0005	0
bin	0.00051	86
bin	0.00052	0
bin	0.00053	2
bin	0.00054	1
bin	0.00055	0
bin	0.00056	87
bin	0.00057	2
bin	0.00058	0
bin	0.00059	0
bin	0.0006	86
bin	0.00061	4
bin	0.00062	0
bin	0.00063	0
bin	0.00064	86
bin	0.00065	0
bin	0.00066	5
bin	0.00067	0
bin	0.00068	92
bin	0.00069	0
bin	0.0007	0
bin	0.00071	0
bin	0.00072	0
bin	0.00073	0
bin	0.00074	0
bin	0.00075	0
bin	0.00076	0
bin	0.00077	0
bin	0.00078	0
bin	0.00079	0
bin	0.0008	0
bin	0.00081	0
bin	0.00082	0
bin	0.00083	0
bin	0.00084	0
bin	0.00085	0
bin	0.00086	0
scalar EthNet.client[3].eth[0].mac.queue queueLength:max 21
attr interpolationmode sample-hold
attr source "count(packetPushed) - count(packetPopped) - count(packetRemoved) - count(packetDropped)"
attr title "queue length, max"
scalar EthNet.client[3].eth[0].mac.queue queueLength:timeavg 14.615111457371
attr interpolationmode sample-hold
attr source "count(packetPushed) - count(packetPopped) - count(packetRemoved) - count(packetDropped)"
attr title "queue length, timeavg"
scalar EthNet.client[3].eth[0].mac.queue packetPushed:count 1286
attr interpolationmode none
attr title "packet pushed, count"
scalar EthNet.client[3].eth[0].mac.queue packetPushed:sum(packetBytes) 427864
attr interpolationmode none
attr title "packet pushed, sum(packetBytes)"
scalar EthNet.client[3].eth[0].mac.queue packetDropQueueOverflow:count 0
attr interpolationmode none
attr source packetDropReasonIsQueueOverflow(packetDropped)
attr title "packet drops: queue overflow, count"
scalar EthNet.client[3].eth[0].mac.queue packetDropQueueOverflow:sum(packetBytes) 0
attr interpolationmode none
attr source packetDropReasonIsQueueOverflow(packetDropped)
attr title "packet drops: queue overflow, sum(packetBytes)"
scalar EthNet.client[3].eth[0].mac.queue packetRemoved:count 0
attr interpolationmode none
attr title "packets removed, count"
scalar EthNet.client[3].eth[0].mac.queue packetRemoved:sum(packetBytes) 0
attr interpolationmode none
attr title "packets removed, sum(packetBytes)"
scalar EthNet.client[3].eth[0].mac "simulated time" 1.03586259
scalar EthNet.client[3].eth[0].mac full-duplex 1
scalar EthNet.client[3].eth[0].mac "frames/sec sent" 1221.2044456591
scalar EthNet.client[3].eth[0].mac "frames/sec rcvd" 1226.9967197097
scalar EthNet.client[3].eth[0].mac "bits/sec sent" 3265375.1884215
scalar EthNet.client[3].eth[0].mac "bits/sec rcvd" 3211035.9347952
scalar EthNet.client[3].eth[0].mac "rx channel idle (%)" 100
scalar EthNet.client[3].eth[0].mac "rx channel utilization (%)" 0
scalar EthNet.client[3].eth[0].mac txPk:count 1265
attr interpolationmode none
attr source packetSentToLower
attr title "packets transmitted, count"
scalar EthNet.client[3].eth[0].mac txPk:sum(packetBytes) 422810
attr interpolationmode none
attr source packetSentToLower
attr title "packets transmitted, sum(packetBytes)"
scalar EthNet.client[3].eth[0].mac packetReceivedFromUpper:count 1286
attr interpolationmode none
attr source packetReceivedFromUpper
attr title "packet bytes from higher layer, count"
scalar EthNet.client[3].eth[0].mac packetReceivedFromUpper:sum(packetBytes) 424052
attr interpolationmode none
attr source packetReceivedFromUpper
attr title "packet bytes from higher layer, sum(packetBytes)"
scalar EthNet.client[3].eth[0].mac passedUpPk:count 1271
attr interpolationmode none
attr source packetSentToUpper
attr title "packets passed to higher layer, count"
scalar EthNet.client[3].eth[0].mac passedUpPk:sum(packetBytes) 415774
attr interpolationmode none
attr source packetSentToUpper
attr title "packets passed to higher layer, sum(packetBytes)"
scalar EthNet.client[3].eth[0].mac packetDropIncorrectlyReceived:count 0
attr interpolationmode none
attr source packetDropReasonIsIncorrectlyReceived(packetDropped)
attr title "packet drop: incorrectly received, count"
scalar EthNet.client[3].eth[0].mac packetDropIncorrectlyReceived:sum(packetBytes) 0
attr interpolationmode none
attr source packetDropReasonIsIncorrectlyReceived(packetDropped)
attr title "packet drop: incorrectly received, sum(packetBytes)"
scalar EthNet.client[3].eth[0].mac packetDropInterfaceDown:count 0
attr interpolationmode none
attr source packetDropReasonIsInterfaceDown(packetDropped)
attr title "packet drop: interface down, count"
scalar EthNet.client[3].eth[0].mac packetDropInterfaceDown:sum(packetBytes) 0
attr interpolationmode none
attr source packetDropReasonIsInterfaceDown(packetDropped)
attr title "packet drop: interface down, sum(packetBytes)"
scalar EthNet.client[3].eth[0].mac packetDropNotAddressedToUs:count 0
attr interpolationmode none
attr source packetDropReasonIsNotAddressedToUs(packetDropped)
attr title "packet drop: not addressed to us, count"
scalar EthNet.client[3].eth[0].mac packetDropNotAddressedToUs:sum(packetBytes) 0
attr interpolationmode none
attr source packetDropReasonIsNotAddressedToUs(packetDropped)
attr title "packet drop: not addressed to us, sum(packetBytes)"
scalar EthNet.client[3].eth[0].mac rxPausePkUnits:count 0
attr interpolationmode none
attr title "pause units received, count"
scalar EthNet.client[3].eth[0].mac rxPausePkUnits:sum 0
attr interpolationmode none
attr title "pause units received, sum"
scalar EthNet.client[3].eth[0].mac txPausePkUnits:count 0
attr interpolationmode none
attr title "pause units sent, count"
scalar EthNet.client[3].eth[0].mac txPausePkUnits:sum 0
attr interpolationmode none
attr title "pause units sent, sum"
scalar EthNet.client[3].eth[0].mac rxPkOk:count 1271
attr interpolationmode none
attr source rxPkOk
attr title "packets received OK, count"
scalar EthNet.client[3].eth[0].mac rxPkOk:sum(packetBytes) 415774
attr interpolationmode none
attr source rxPkOk
attr title "packets received OK, sum(packetBytes)"
scalar EthNet.client[3].eth[0].encap pauseSent:count 0
attr title "pause sent, count"
scalar EthNet.client[3].eth[0].encap pauseSent:sum 0
attr title "pause sent, sum"
scalar EthNet.client[3].eth[0].encap decapPk:count 1271
attr interpolationmode none
attr source decapPk
attr title "packets decapsulated, count"
scalar EthNet.client[3].eth[0].encap decapPk:sum(packetBytes) 392896
attr interpolationmode none
attr source decapPk
attr title "packets decapsulated, sum(packetBytes)"
scalar EthNet.client[3].eth[0].encap encapPk:count 1286
attr interpolationmode none
attr source encapPk
attr title "packets encapsulated, count"
scalar EthNet.client[3].eth[0].encap encapPk:sum(packetBytes) 400904
attr interpolationmode none
attr source encapPk
attr title "packets encapsulated, sum(packetBytes)"
scalar EthNet.client[3].ipv4.ip packetDropAddressResolutionFailed:count 0
attr interpolationmode none
attr source packetDropReasonIsAddressResolutionFailed(packetDropped)
attr title "packet drop: address resolution failed, count"
scalar EthNet.client[3].ipv4.ip packetDropAddressResolutionFailed:sum(packetBytes) 0
attr interpolationmode none
attr source packetDropReasonIsAddressResolutionFailed(packetDropped)
attr title "packet drop: address resolution failed, sum(packetBytes)"
scalar EthNet.client[3].ipv4.ip packetDropHopLimitReached:count 0
attr interpolationmode none
attr source packetDropReasonIsHopLimitReached(packetDropped)
attr title "packet drop: hop limit reached, count"
scalar EthNet.client[3].ipv4.ip packetDropHopLimitReached:sum(packetBytes) 0
attr interpolationmode none
attr source packetDropReasonIsHopLimitReached(packetDropped)
attr title "packet drop: hop limit reached, sum(packetBytes)"
scalar EthNet.client[3].ipv4.ip packetDropForwardingDisabled:count 0
attr interpolationmode none
attr source packetDropReasonIsForwardingDisabled(packetDropped)
attr title "packet drop: forwarding disabled, count"
scalar EthNet.client[3].ipv4.ip packetDropForwardingDisabled:sum(packetBytes) 0
attr interpolationmode none
attr source packetDropReasonIsForwardingDisabled(packetDropped)
attr title "packet drop: forwarding disabled, sum(packetBytes)"
scalar EthNet.client[3].ipv4.ip packetDropNoInterfaceFound:count 0
attr interpolationmode none
attr source packetDropReasonIsNoInterfaceFound(packetDropped)
attr title "packet drop: no interface found, count"
scalar EthNet.client[3].ipv4.ip packetDropNoInterfaceFound:sum(packetBytes) 0
attr interpolationmode none
attr source packetDropReasonIsNoInterfaceFound(packetDropped)
attr title "packet drop: no interface found, sum(packetBytes)"
scalar EthNet.client[3].ipv4.ip packetDropNoRouteFound:count 0
attr interpolationmode none
attr source packetDropReasonIsNoRouteFound(packetDropped)
attr title "packet drop: no route found, count"
scalar EthNet.client[3].ipv4.ip packetDropNoRouteFound:sum(packetBytes) 0
attr interpolationmode none
attr source packetDropReasonIsNoRouteFound(packetDropped)
attr title "packet drop: no route found, sum(packetBytes)"
scalar EthNet.client[3].ipv4.ip packetDropUndefined:count 0
attr interpolationmode none
attr source packetDropReasonIsUndefined(packetDropped)
attr title "packet drop: undefined, count"
scalar EthNet.client[3].ipv4.ip packetDropUndefined:sum(packetBytes) 0
attr interpolationmode none
attr source packetDropReasonIsUndefined(packetDropped)
attr title "packet drop: undefined, sum(packetBytes)"
scalar EthNet.client[3].ipv4.arp arpReplySent:count 0
attr source arpReplySent
attr title "ARP replies sent, count"
scalar EthNet.client[3].ipv4.arp arpReplySent:sum(packetBytes) 0
attr source arpReplySent
attr title "ARP replies sent, sum(packetBytes)"
scalar EthNet.client[3].ipv4.arp arpRequestSent:count 1
attr source arpRequestSent
attr title "ARP request sent, count"
scalar EthNet.client[3].ipv4.arp arpRequestSent:sum(packetBytes) 28
attr source arpRequestSent
attr title "ARP request sent, sum(packetBytes)"
scalar EthNet.client[3].ipv4.arp arpResolutionFailed:count 0
attr title "ARP failed resolutions, count"
scalar EthNet.client[3].ipv4.arp arpResolutionCompleted:count 1
attr title "ARP completed resolutions, count"
scalar EthNet.client[3].ipv4.arp arpResolutionInitiated:count 1
attr title "ARP initiated resolutions, count"
scalar EthNet.client[3].udp packetReceived:count 0
attr interpolationmode none
attr source packetReceived
attr title "packets received, count"
scalar EthNet.client[3].udp packetReceived:sum(packetBytes) 0
attr interpolationmode none
attr source packetReceived
attr title "packets received, sum(packetBytes)"
scalar EthNet.client[3].udp packetSent:count 0
attr interpolationmode none
attr source packetSent
attr title "packets sent, count"
scalar EthNet.client[3].udp packetSent:sum(packetBytes) 0
attr interpolationmode none
attr source packetSent
attr title "packets sent, sum(packetBytes)"
scalar EthNet.client[3].udp passedUpPk:count 0
attr interpolationmode none
attr source packetSentToUpper
attr title "packets passed up, count"
scalar EthNet.client[3].udp droppedPkWrongPort:count 0
attr interpolationmode none
attr source packetDropReasonIsNoPortFound(packetDropped)
attr title "packets dropped (wrong port), count"
scalar EthNet.client[3].udp droppedPkBadChecksum:count 0
attr interpolationmode none
attr source packetDropReasonIsIncorrectlyReceived(packetDropped)
attr title "packets dropped (checksum error), count"
scalar EthNet.client[3].app[0] bytesRcvd 338216
scalar EthNet.client[3].app[0] bytesSent 1000000
scalar EthNet.client[3].app[0] packetReceived:count 631
attr interpolationmode none
attr source packetReceived
attr title "packets received, count"
scalar EthNet.client[3].app[0] packetReceived:sum(packetBytes) 338216
attr interpolationmode none
attr source packetReceived
attr title "packets received, sum(packetBytes)"
statistic EthNet.client[3].app[0] endToEndDelay:histogram
field count 631
field mean 0.018237237939778
field stddev 0.010193130855102
field min 0.00010986
field max 0.0357914
field sum 11.50769714
field sqrsum 0.2753255583575
attr interpolationmode none
attr source dataAge(packetReceived)
attr title "end-to-end delay, histogram"
attr unit s
bin	-inf	0
bin	0	5
bin	0.0005	6
bin	0.001	4
bin	0.0015	10
bin	0.002	8
bin	0.0025	10
bin	0.003	9
bin	0.0035	8
bin	0.004	10
bin	0.0045	8
bin	0.005	9
bin	0.0055	10
bin	0.006	8
bin	0.0065	8
bin	0.007	10
bin	0.0075	9
bin	0.008	9
bin	0.0085	9
bin	0.009	8
bin	0.0095	11
bin	0.01	8
bin	0.0105	8
bin	0.011	10
bin	0.0115	9
bin	0.012	8
bin	0.0125	10
bin	0.013	8
bin	0.0135	9
bin	0.014	10
bin	0.0145	8
bin	0.015	10
bin	0.0155	8
bin	0.016	9
bin	0.0165	10
bin	0.017	8
bin	0.0175	8
bin	0.018	11
bin	0.0185	8
bin	0.019	8
bin	0.0195	10
bin	0.02	9
bin	0.0205	9
bin	0.021	9
bin	0.0215	8
bin	0.022	10
bin	0.0225	9
bin	0.023	8
bin	0.0235	10
bin	0.024	8
bin	0.0245	9
bin	0.025	10
bin	0.0255	8
bin	0.026	9
bin	0.0265	10
bin	0.027	8
bin	0.0275	10
bin	0.028	8
bin	0.0285	9
bin	0.029	10
bin	0.0295	8
bin	0.03	8
bin	0.0305	10
bin	0.031	9
bin	0.0315	8
bin	0.032	10
bin	0.0325	8
bin	0.033	10
bin	0.0335	9
bin	0.034	8
bin	0.0345	10
bin	0.035	9
bin	0.0355	6
bin	0.036	0
bin	0.0365	0
bin	0.037	0
bin	0.0375	0
bin	0.038	0
bin	0.0385	0
bin	0.039	0
bin	0.0395	0
bin	0.04	0
bin	0.0405	0
bin	0.041	0
bin	0.0415	0
bin	0.042	0
bin	0.0425	0
bin	0.043	0
bin	0.0435	0
bin	0.044	0
bin	0.0445	0
bin	0.045	0
statistic EthNet.client[3].app[0] endToEndDelay:weightedHistogram
field count 631
field mean 0.018237237939778
field stddev 0.010193130855102
field min 0.00010986
field max 0.0357914
field weights 2705728
field weightedSum 49345.00533632
field sqrSumWeights 11602161664
field weightedSqrSum 1180.595994237
attr interpolationmode none
attr source dataAge(packetReceived)
attr title "end-to-end delay, weightedHistogram"
attr unit s
bin	-inf	0
bin	0	21440
bin	0.0005	25728
bin	0.001	17152
bin	0.0015	42880
bin	0.002	34304
bin	0.0025	42880
bin	0.003	38592
bin	0.0035	34304
bin	0.004	42880
bin	0.0045	34304
bin	0.005	38592
bin	0.0055	42880
bin	0.006	34304
bin	0.0065	34304
bin	0.007	42880
bin	0.0075	38592
bin	0.008	38592
bin	0.0085	38592
bin	0.009	34304
bin	0.0095	47168
bin	0.01	34304
bin	0.0105	34304
bin	0.011	42880
bin	0.0115	38592
bin	0.012	34304
bin	0.0125	42880
bin	0.013	34304
bin	0.0135	38592
bin	0.014	42880
bin	0.0145	34304
bin	0.015	42880
bin	0.0155	34304
bin	0.016	38592
bin	0.0165	42880
bin	0.017	34304
bin	0.0175	34304
bin	0.018	47168
bin	0.0185	34304
bin	0.019	34304
bin	0.0195	42880
bin	0.02	38592
bin	0.0205	38592
bin	0.021	38592
bin	0.0215	34304
bin	0.022	42880
bin	0.0225	38592
bin	0.023	34304
bin	0.0235	42880
bin	0.024	34304
bin	0.0245	38592
bin	0.025	42880
bin	0.0255	34304
bin	0.026	38592
bin	0.0265	42880
bin	0.027	34304
bin	0.0275	42880
bin	0.028	34304
bin	0.0285	38592
bin	0.029	42880
bin	0.0295	34304
bin	0.03	34304
bin	0.0305	42880
bin	0.031	38592
bin	0.0315	34304
bin	0.032	42880
bin	0.0325	34304
bin	0.033	42880
bin	0.0335	38592
bin	0.034	34304
bin	0.0345	42880
bin	0.035	38592
bin	0.0355	25728
bin	0.036	0
bin	0.0365	0
bin	0.037	0
bin	0.0375	0
bin	0.038	0
bin	0.0385	0
bin	0.039	0
bin	0.0395	0
bin	0.04	0
bin	0.0405	0
bin	0.041	0
bin	0.0415	0
bin	0.042	0
bin	0.0425	0
bin	0.043	0
bin	0.0435	0
bin	0.044	0
bin	0.0445	0
bin	0.045	0
scalar EthNet.client[3].app[0] packetSent:count 1
attr interpolationmode none
attr source packetSent
attr title "packets sent, count"
scalar EthNet.client[3].app[0] packetSent:sum(packetBytes) 1000000
attr interpolationmode none
attr source packetSent
attr title "packets sent, sum(packetBytes)"

