version 2
run DSDV-0-20241209-11:11:25-6812
attr configname DSDV
attr datetime 20241209-11:11:25
attr experiment DSDV
attr inifile omnetpp.ini
attr iterationvars ""
attr iterationvarsf ""
attr measurement ""
attr network manets
attr processid 6812
attr repetition 0
attr replication #0
attr resultdir results
attr runnumber 0
attr seedset 0
param **.nodoMovil[*].routing.typename "\"Dsdv\""
param **.nodoFijo*.routing.typename "\"Dsdv\""
param **.nodoFijo1.numApps 1
param **.nodoFijo2.numApps 1
param **.nodoFijo1.app[0].typename "\"UdpBasicApp\""
param **.nodoFijo1.app[0].destAddresses "\"nodoFijo2\""
param **.nodoFijo1.app[0].destPort 1000
param **.nodoFijo1.app[0].startTime 5s
param **.nodoFijo1.app[0].messageLength 50B
param **.nodoFijo1.app[0].sendInterval 0.25s
param **.nodoFijo2.app[0].typename "\"UdpEchoApp\""
param **.nodoFijo2.app[0].localPort 1000
param **.wlan[*].typename "\"AckingWirelessInterface\""
param **.wlan[*].bitrate 2Mbps
param **.wlan[*].mac.headerLength 20B
param **.wlan[*].radio.typename "\"UnitDiskRadio\""
param **.wlan[*].radio.transmitter.headerLength 96b
param **.wlan[*].radio.transmitter.communicationRange 400m
param **.wlan[*].radio.transmitter.interferenceRange 0m
param **.wlan[*].radio.transmitter.detectionRange 0m
param **.wlan[*].radio.receiver.ignoreInterference true
param *.n 7
param **.mobility.initFromDisplayString false
param **.nodoMovil[*].mobility.typename "\"MassMobility\""
param **.nodoMovil[*].mobility.speed 1mps
param **.mobility.constraintAreaMinZ 0m
param **.mobility.constraintAreaMaxZ 0m
param **.mobility.constraintAreaMinX 0m
param **.mobility.constraintAreaMinY 0m
param **.mobility.constraintAreaMaxX 1200m
param **.mobility.constraintAreaMaxY 600m
param **.nodoMovil[*].mobility.changeInterval "normal(5s, 0.1s)"
param **.nodoMovil[*].mobility.changeAngleBy "normal(0deg, 30deg)"
param **.nodoFijo1.mobility.initialX 0m
param **.nodoFijo1.mobility.initialY 300m
param **.nodoFijo2.mobility.initialX 1200m
param **.nodoFijo2.mobility.initialY 300m
param **.dataLinkVisualizer.displayLinks true
param **.nodoMovil*.wlan[*].radio.displayCommunicationRange true
param **.networkRouteVisualizer.displayRoutes true

vector 0 manets.nodoFijo1.wlan[0].radio radioMode:vector ETV
attr interpolationmode sample-hold
attr source radioModeChanged
attr title "Radio mode, vector"
vector 1 manets.nodoFijo2.wlan[0].radio radioMode:vector ETV
attr interpolationmode sample-hold
attr source radioModeChanged
attr title "Radio mode, vector"
vector 2 manets.nodoMovil[0].wlan[0].radio radioMode:vector ETV
attr interpolationmode sample-hold
attr source radioModeChanged
attr title "Radio mode, vector"
vector 3 manets.nodoMovil[1].wlan[0].radio radioMode:vector ETV
attr interpolationmode sample-hold
attr source radioModeChanged
attr title "Radio mode, vector"
vector 4 manets.nodoMovil[2].wlan[0].radio radioMode:vector ETV
attr interpolationmode sample-hold
attr source radioModeChanged
attr title "Radio mode, vector"
vector 5 manets.nodoMovil[3].wlan[0].radio radioMode:vector ETV
attr interpolationmode sample-hold
attr source radioModeChanged
attr title "Radio mode, vector"
vector 6 manets.nodoMovil[4].wlan[0].radio radioMode:vector ETV
attr interpolationmode sample-hold
attr source radioModeChanged
attr title "Radio mode, vector"
vector 7 manets.nodoMovil[5].wlan[0].radio radioMode:vector ETV
attr interpolationmode sample-hold
attr source radioModeChanged
attr title "Radio mode, vector"
vector 8 manets.nodoMovil[6].wlan[0].radio radioMode:vector ETV
attr interpolationmode sample-hold
attr source radioModeChanged
attr title "Radio mode, vector"
vector 9 manets.nodoFijo1.wlan[0].radio receptionState:vector ETV
attr interpolationmode sample-hold
attr source receptionStateChanged
attr title "Radio reception state, vector"
vector 10 manets.nodoFijo1.wlan[0].radio transmissionState:vector ETV
attr interpolationmode sample-hold
attr source transmissionStateChanged
attr title "Radio transmission state, vector"
vector 11 manets.nodoFijo2.wlan[0].radio receptionState:vector ETV
attr interpolationmode sample-hold
attr source receptionStateChanged
attr title "Radio reception state, vector"
vector 12 manets.nodoFijo2.wlan[0].radio transmissionState:vector ETV
attr interpolationmode sample-hold
attr source transmissionStateChanged
attr title "Radio transmission state, vector"
vector 13 manets.nodoMovil[0].wlan[0].radio receptionState:vector ETV
attr interpolationmode sample-hold
attr source receptionStateChanged
attr title "Radio reception state, vector"
vector 14 manets.nodoMovil[0].wlan[0].radio transmissionState:vector ETV
attr interpolationmode sample-hold
attr source transmissionStateChanged
attr title "Radio transmission state, vector"
vector 15 manets.nodoMovil[1].wlan[0].radio receptionState:vector ETV
attr interpolationmode sample-hold
attr source receptionStateChanged
attr title "Radio reception state, vector"
vector 16 manets.nodoMovil[1].wlan[0].radio transmissionState:vector ETV
attr interpolationmode sample-hold
attr source transmissionStateChanged
attr title "Radio transmission state, vector"
vector 17 manets.nodoMovil[2].wlan[0].radio receptionState:vector ETV
attr interpolationmode sample-hold
attr source receptionStateChanged
attr title "Radio reception state, vector"
vector 18 manets.nodoMovil[2].wlan[0].radio transmissionState:vector ETV
attr interpolationmode sample-hold
attr source transmissionStateChanged
attr title "Radio transmission state, vector"
vector 19 manets.nodoMovil[3].wlan[0].radio receptionState:vector ETV
attr interpolationmode sample-hold
attr source receptionStateChanged
attr title "Radio reception state, vector"
vector 20 manets.nodoMovil[3].wlan[0].radio transmissionState:vector ETV
attr interpolationmode sample-hold
attr source transmissionStateChanged
attr title "Radio transmission state, vector"
vector 21 manets.nodoMovil[4].wlan[0].radio receptionState:vector ETV
attr interpolationmode sample-hold
attr source receptionStateChanged
attr title "Radio reception state, vector"
vector 22 manets.nodoMovil[4].wlan[0].radio transmissionState:vector ETV
attr interpolationmode sample-hold
attr source transmissionStateChanged
attr title "Radio transmission state, vector"
vector 23 manets.nodoMovil[5].wlan[0].radio receptionState:vector ETV
attr interpolationmode sample-hold
attr source receptionStateChanged
attr title "Radio reception state, vector"
vector 24 manets.nodoMovil[5].wlan[0].radio transmissionState:vector ETV
attr interpolationmode sample-hold
attr source transmissionStateChanged
attr title "Radio transmission state, vector"
vector 25 manets.nodoMovil[6].wlan[0].radio receptionState:vector ETV
attr interpolationmode sample-hold
attr source receptionStateChanged
attr title "Radio reception state, vector"
vector 26 manets.nodoMovil[6].wlan[0].radio transmissionState:vector ETV
attr interpolationmode sample-hold
attr source transmissionStateChanged
attr title "Radio transmission state, vector"
vector 27 manets.nodoMovil[5].wlan[0].mac rcvdPkFromHl:vector(packetBytes) ETV
attr interpolationmode none
attr source packetReceivedFromUpper
attr title "packets received from higher layer, vector(packetBytes)"
vector 28 manets.nodoMovil[5].wlan[0].mac.queue packetPushed:vector(packetBytes) ETV
attr interpolationmode none
attr title "packet pushed, vector(packetBytes)"
vector 29 manets.nodoMovil[5].wlan[0].mac.queue queueLength:vector ETV
attr interpolationmode sample-hold
attr source "count(packetPushed) - count(packetPopped) - count(packetRemoved) - count(packetDropped)"
attr title "queue length, vector"
vector 30 manets.nodoMovil[5].wlan[0].mac.queue packetPopped:vector(packetBytes) ETV
attr interpolationmode none
attr title "packet popped, vector(packetBytes)"
vector 31 manets.nodoMovil[5].wlan[0].mac.queue queueingTime:vector ETV
attr interpolationmode none
attr source queueingTime(packetPopped)
attr title "queueing times, vector"
attr unit s
vector 32 manets.nodoMovil[5].wlan[0].mac sentDownPk:vector(packetBytes) ETV
attr interpolationmode none
attr source packetSentToLower
attr title "packets sent to lower layer, vector(packetBytes)"
vector 33 manets.nodoFijo1.wlan[0].mac rcvdPkFromLl:vector(packetBytes) ETV
attr interpolationmode none
attr source packetReceivedFromLower
attr title "packets received from lower layer, vector(packetBytes)"
vector 34 manets.nodoFijo1.wlan[0].mac passedUpPk:vector(packetBytes) ETV
attr interpolationmode none
attr source packetSentToUpper
attr title "packets passed to higher layer, vector(packetBytes)"
vector 35 manets.nodoMovil[3].wlan[0].mac rcvdPkFromLl:vector(packetBytes) ETV
attr interpolationmode none
attr source packetReceivedFromLower
attr title "packets received from lower layer, vector(packetBytes)"
vector 36 manets.nodoMovil[3].wlan[0].mac passedUpPk:vector(packetBytes) ETV
attr interpolationmode none
attr source packetSentToUpper
attr title "packets passed to higher layer, vector(packetBytes)"
vector 37 manets.nodoMovil[2].wlan[0].mac rcvdPkFromLl:vector(packetBytes) ETV
attr interpolationmode none
attr source packetReceivedFromLower
attr title "packets received from lower layer, vector(packetBytes)"
vector 38 manets.nodoMovil[2].wlan[0].mac passedUpPk:vector(packetBytes) ETV
attr interpolationmode none
attr source packetSentToUpper
attr title "packets passed to higher layer, vector(packetBytes)"
vector 39 manets.nodoMovil[4].wlan[0].mac rcvdPkFromLl:vector(packetBytes) ETV
attr interpolationmode none
attr source packetReceivedFromLower
attr title "packets received from lower layer, vector(packetBytes)"
vector 40 manets.nodoMovil[4].wlan[0].mac passedUpPk:vector(packetBytes) ETV
attr interpolationmode none
attr source packetSentToUpper
attr title "packets passed to higher layer, vector(packetBytes)"
vector 41 manets.nodoMovil[4].wlan[0].mac rcvdPkFromHl:vector(packetBytes) ETV
attr interpolationmode none
attr source packetReceivedFromUpper
attr title "packets received from higher layer, vector(packetBytes)"
vector 42 manets.nodoMovil[4].wlan[0].mac.queue packetPushed:vector(packetBytes) ETV
attr interpolationmode none
attr title "packet pushed, vector(packetBytes)"
vector 43 manets.nodoMovil[4].wlan[0].mac.queue queueLength:vector ETV
attr interpolationmode sample-hold
attr source "count(packetPushed) - count(packetPopped) - count(packetRemoved) - count(packetDropped)"
attr title "queue length, vector"
vector 44 manets.nodoMovil[4].wlan[0].mac.queue packetPopped:vector(packetBytes) ETV
attr interpolationmode none
attr title "packet popped, vector(packetBytes)"
vector 45 manets.nodoMovil[4].wlan[0].mac.queue queueingTime:vector ETV
attr interpolationmode none
attr source queueingTime(packetPopped)
attr title "queueing times, vector"
attr unit s
vector 46 manets.nodoMovil[4].wlan[0].mac sentDownPk:vector(packetBytes) ETV
attr interpolationmode none
attr source packetSentToLower
attr title "packets sent to lower layer, vector(packetBytes)"
vector 47 manets.nodoMovil[5].wlan[0].mac rcvdPkFromLl:vector(packetBytes) ETV
attr interpolationmode none
attr source packetReceivedFromLower
attr title "packets received from lower layer, vector(packetBytes)"
vector 48 manets.nodoMovil[5].wlan[0].mac passedUpPk:vector(packetBytes) ETV
attr interpolationmode none
attr source packetSentToUpper
attr title "packets passed to higher layer, vector(packetBytes)"
vector 49 manets.nodoMovil[0].wlan[0].mac rcvdPkFromLl:vector(packetBytes) ETV
attr interpolationmode none
attr source packetReceivedFromLower
attr title "packets received from lower layer, vector(packetBytes)"
vector 50 manets.nodoMovil[0].wlan[0].mac passedUpPk:vector(packetBytes) ETV
attr interpolationmode none
attr source packetSentToUpper
attr title "packets passed to higher layer, vector(packetBytes)"
vector 51 manets.nodoMovil[1].wlan[0].mac rcvdPkFromLl:vector(packetBytes) ETV
attr interpolationmode none
attr source packetReceivedFromLower
attr title "packets received from lower layer, vector(packetBytes)"
vector 52 manets.nodoMovil[1].wlan[0].mac passedUpPk:vector(packetBytes) ETV
attr interpolationmode none
attr source packetSentToUpper
attr title "packets passed to higher layer, vector(packetBytes)"
vector 53 manets.nodoMovil[3].wlan[0].mac rcvdPkFromHl:vector(packetBytes) ETV
attr interpolationmode none
attr source packetReceivedFromUpper
attr title "packets received from higher layer, vector(packetBytes)"
vector 54 manets.nodoMovil[3].wlan[0].mac.queue packetPushed:vector(packetBytes) ETV
attr interpolationmode none
attr title "packet pushed, vector(packetBytes)"
vector 55 manets.nodoMovil[3].wlan[0].mac.queue queueLength:vector ETV
attr interpolationmode sample-hold
attr source "count(packetPushed) - count(packetPopped) - count(packetRemoved) - count(packetDropped)"
attr title "queue length, vector"
vector 56 manets.nodoMovil[3].wlan[0].mac.queue packetPopped:vector(packetBytes) ETV
attr interpolationmode none
attr title "packet popped, vector(packetBytes)"
vector 57 manets.nodoMovil[3].wlan[0].mac.queue queueingTime:vector ETV
attr interpolationmode none
attr source queueingTime(packetPopped)
attr title "queueing times, vector"
attr unit s
vector 58 manets.nodoMovil[3].wlan[0].mac sentDownPk:vector(packetBytes) ETV
attr interpolationmode none
attr source packetSentToLower
attr title "packets sent to lower layer, vector(packetBytes)"
vector 59 manets.nodoMovil[2].wlan[0].mac rcvdPkFromHl:vector(packetBytes) ETV
attr interpolationmode none
attr source packetReceivedFromUpper
attr title "packets received from higher layer, vector(packetBytes)"
vector 60 manets.nodoMovil[2].wlan[0].mac.queue packetPushed:vector(packetBytes) ETV
attr interpolationmode none
attr title "packet pushed, vector(packetBytes)"
vector 61 manets.nodoMovil[2].wlan[0].mac.queue queueLength:vector ETV
attr interpolationmode sample-hold
attr source "count(packetPushed) - count(packetPopped) - count(packetRemoved) - count(packetDropped)"
attr title "queue length, vector"
vector 62 manets.nodoMovil[2].wlan[0].mac.queue packetPopped:vector(packetBytes) ETV
attr interpolationmode none
attr title "packet popped, vector(packetBytes)"
vector 63 manets.nodoMovil[2].wlan[0].mac.queue queueingTime:vector ETV
attr interpolationmode none
attr source queueingTime(packetPopped)
attr title "queueing times, vector"
attr unit s
vector 64 manets.nodoMovil[2].wlan[0].mac sentDownPk:vector(packetBytes) ETV
attr interpolationmode none
attr source packetSentToLower
attr title "packets sent to lower layer, vector(packetBytes)"
vector 65 manets.nodoMovil[1].wlan[0].mac rcvdPkFromHl:vector(packetBytes) ETV
attr interpolationmode none
attr source packetReceivedFromUpper
attr title "packets received from higher layer, vector(packetBytes)"
vector 66 manets.nodoMovil[1].wlan[0].mac.queue packetPushed:vector(packetBytes) ETV
attr interpolationmode none
attr title "packet pushed, vector(packetBytes)"
vector 67 manets.nodoMovil[1].wlan[0].mac.queue queueLength:vector ETV
attr interpolationmode sample-hold
attr source "count(packetPushed) - count(packetPopped) - count(packetRemoved) - count(packetDropped)"
attr title "queue length, vector"
vector 68 manets.nodoMovil[1].wlan[0].mac.queue packetPopped:vector(packetBytes) ETV
attr interpolationmode none
attr title "packet popped, vector(packetBytes)"
vector 69 manets.nodoMovil[1].wlan[0].mac.queue queueingTime:vector ETV
attr interpolationmode none
attr source queueingTime(packetPopped)
attr title "queueing times, vector"
attr unit s
vector 70 manets.nodoMovil[1].wlan[0].mac sentDownPk:vector(packetBytes) ETV
attr interpolationmode none
attr source packetSentToLower
attr title "packets sent to lower layer, vector(packetBytes)"
vector 71 manets.nodoMovil[6].wlan[0].mac rcvdPkFromLl:vector(packetBytes) ETV
attr interpolationmode none
attr source packetReceivedFromLower
attr title "packets received from lower layer, vector(packetBytes)"
vector 72 manets.nodoMovil[6].wlan[0].mac passedUpPk:vector(packetBytes) ETV
attr interpolationmode none
attr source packetSentToUpper
attr title "packets passed to higher layer, vector(packetBytes)"
vector 73 manets.nodoFijo2.wlan[0].mac rcvdPkFromLl:vector(packetBytes) ETV
attr interpolationmode none
attr source packetReceivedFromLower
attr title "packets received from lower layer, vector(packetBytes)"
vector 74 manets.nodoFijo2.wlan[0].mac passedUpPk:vector(packetBytes) ETV
attr interpolationmode none
attr source packetSentToUpper
attr title "packets passed to higher layer, vector(packetBytes)"
vector 75 manets.nodoFijo1.wlan[0].mac rcvdPkFromHl:vector(packetBytes) ETV
attr interpolationmode none
attr source packetReceivedFromUpper
attr title "packets received from higher layer, vector(packetBytes)"
vector 76 manets.nodoFijo1.wlan[0].mac.queue packetPushed:vector(packetBytes) ETV
attr interpolationmode none
attr title "packet pushed, vector(packetBytes)"
vector 77 manets.nodoFijo1.wlan[0].mac.queue queueLength:vector ETV
attr interpolationmode sample-hold
attr source "count(packetPushed) - count(packetPopped) - count(packetRemoved) - count(packetDropped)"
attr title "queue length, vector"
vector 78 manets.nodoFijo1.wlan[0].mac.queue packetPopped:vector(packetBytes) ETV
attr interpolationmode none
attr title "packet popped, vector(packetBytes)"
vector 79 manets.nodoFijo1.wlan[0].mac.queue queueingTime:vector ETV
attr interpolationmode none
attr source queueingTime(packetPopped)
attr title "queueing times, vector"
attr unit s
vector 80 manets.nodoFijo1.wlan[0].mac sentDownPk:vector(packetBytes) ETV
attr interpolationmode none
attr source packetSentToLower
attr title "packets sent to lower layer, vector(packetBytes)"
vector 81 manets.nodoFijo2.wlan[0].mac rcvdPkFromHl:vector(packetBytes) ETV
attr interpolationmode none
attr source packetReceivedFromUpper
attr title "packets received from higher layer, vector(packetBytes)"
vector 82 manets.nodoFijo2.wlan[0].mac.queue packetPushed:vector(packetBytes) ETV
attr interpolationmode none
attr title "packet pushed, vector(packetBytes)"
vector 83 manets.nodoFijo2.wlan[0].mac.queue queueLength:vector ETV
attr interpolationmode sample-hold
attr source "count(packetPushed) - count(packetPopped) - count(packetRemoved) - count(packetDropped)"
attr title "queue length, vector"
vector 84 manets.nodoFijo2.wlan[0].mac.queue packetPopped:vector(packetBytes) ETV
attr interpolationmode none
attr title "packet popped, vector(packetBytes)"
vector 85 manets.nodoFijo2.wlan[0].mac.queue queueingTime:vector ETV
attr interpolationmode none
attr source queueingTime(packetPopped)
attr title "queueing times, vector"
attr unit s
vector 86 manets.nodoFijo2.wlan[0].mac sentDownPk:vector(packetBytes) ETV
attr interpolationmode none
attr source packetSentToLower
attr title "packets sent to lower layer, vector(packetBytes)"
vector 87 manets.nodoMovil[0].wlan[0].mac rcvdPkFromHl:vector(packetBytes) ETV
attr interpolationmode none
attr source packetReceivedFromUpper
attr title "packets received from higher layer, vector(packetBytes)"
vector 88 manets.nodoMovil[0].wlan[0].mac.queue packetPushed:vector(packetBytes) ETV
attr interpolationmode none
attr title "packet pushed, vector(packetBytes)"
vector 89 manets.nodoMovil[0].wlan[0].mac.queue queueLength:vector ETV
attr interpolationmode sample-hold
attr source "count(packetPushed) - count(packetPopped) - count(packetRemoved) - count(packetDropped)"
attr title "queue length, vector"
vector 90 manets.nodoMovil[0].wlan[0].mac.queue packetPopped:vector(packetBytes) ETV
attr interpolationmode none
attr title "packet popped, vector(packetBytes)"
vector 91 manets.nodoMovil[0].wlan[0].mac.queue queueingTime:vector ETV
attr interpolationmode none
attr source queueingTime(packetPopped)
attr title "queueing times, vector"
attr unit s
vector 92 manets.nodoMovil[0].wlan[0].mac sentDownPk:vector(packetBytes) ETV
attr interpolationmode none
attr source packetSentToLower
attr title "packets sent to lower layer, vector(packetBytes)"
vector 93 manets.nodoMovil[6].wlan[0].mac rcvdPkFromHl:vector(packetBytes) ETV
attr interpolationmode none
attr source packetReceivedFromUpper
attr title "packets received from higher layer, vector(packetBytes)"
vector 94 manets.nodoMovil[6].wlan[0].mac.queue packetPushed:vector(packetBytes) ETV
attr interpolationmode none
attr title "packet pushed, vector(packetBytes)"
vector 95 manets.nodoMovil[6].wlan[0].mac.queue queueLength:vector ETV
attr interpolationmode sample-hold
attr source "count(packetPushed) - count(packetPopped) - count(packetRemoved) - count(packetDropped)"
attr title "queue length, vector"
vector 96 manets.nodoMovil[6].wlan[0].mac.queue packetPopped:vector(packetBytes) ETV
attr interpolationmode none
attr title "packet popped, vector(packetBytes)"
vector 97 manets.nodoMovil[6].wlan[0].mac.queue queueingTime:vector ETV
attr interpolationmode none
attr source queueingTime(packetPopped)
attr title "queueing times, vector"
attr unit s
vector 98 manets.nodoMovil[6].wlan[0].mac sentDownPk:vector(packetBytes) ETV
attr interpolationmode none
attr source packetSentToLower
attr title "packets sent to lower layer, vector(packetBytes)"
vector 99 manets.nodoFijo1.app[0] packetSent:vector(packetBytes) ETV
attr interpolationmode none
attr source packetSent
attr title "packets sent, vector(packetBytes)"
vector 100 manets.nodoFijo1.udp packetSent:vector(packetBytes) ETV
attr interpolationmode none
attr source packetSent
attr title "packets sent, vector(packetBytes)"
vector 101 manets.nodoFijo1.ipv4.arp arpRequestSent:vector(packetBytes) ETV
attr source arpRequestSent
attr title "ARP request sent, vector(packetBytes)"
vector 102 manets.nodoMovil[2].ipv4.arp arpReplySent:vector(packetBytes) ETV
attr source arpReplySent
attr title "ARP replies sent, vector(packetBytes)"
vector 103 manets.nodoMovil[5].wlan[0].mac packetDropNotAddressedToUs:vector(packetBytes) ETV
attr interpolationmode none
attr source packetDropReasonIsNotAddressedToUs(packetDropped)
attr title "packet drop: not addressed to us, vector(packetBytes)"
vector 104 manets.nodoMovil[4].wlan[0].mac packetDropNotAddressedToUs:vector(packetBytes) ETV
attr interpolationmode none
attr source packetDropReasonIsNotAddressedToUs(packetDropped)
attr title "packet drop: not addressed to us, vector(packetBytes)"
vector 105 manets.nodoMovil[0].wlan[0].mac packetDropNotAddressedToUs:vector(packetBytes) ETV
attr interpolationmode none
attr source packetDropReasonIsNotAddressedToUs(packetDropped)
attr title "packet drop: not addressed to us, vector(packetBytes)"
vector 106 manets.nodoMovil[3].wlan[0].mac packetDropNotAddressedToUs:vector(packetBytes) ETV
attr interpolationmode none
attr source packetDropReasonIsNotAddressedToUs(packetDropped)
attr title "packet drop: not addressed to us, vector(packetBytes)"
vector 107 manets.nodoMovil[2].ipv4.arp arpRequestSent:vector(packetBytes) ETV
attr source arpRequestSent
attr title "ARP request sent, vector(packetBytes)"
vector 108 manets.nodoMovil[0].ipv4.arp arpReplySent:vector(packetBytes) ETV
attr source arpReplySent
attr title "ARP replies sent, vector(packetBytes)"
vector 109 manets.nodoMovil[1].wlan[0].mac packetDropNotAddressedToUs:vector(packetBytes) ETV
attr interpolationmode none
attr source packetDropReasonIsNotAddressedToUs(packetDropped)
attr title "packet drop: not addressed to us, vector(packetBytes)"
vector 110 manets.nodoFijo1.wlan[0].mac packetDropNotAddressedToUs:vector(packetBytes) ETV
attr interpolationmode none
attr source packetDropReasonIsNotAddressedToUs(packetDropped)
attr title "packet drop: not addressed to us, vector(packetBytes)"
vector 111 manets.nodoMovil[0].ipv4.arp arpRequestSent:vector(packetBytes) ETV
attr source arpRequestSent
attr title "ARP request sent, vector(packetBytes)"
vector 112 manets.nodoMovil[1].ipv4.arp arpReplySent:vector(packetBytes) ETV
attr source arpReplySent
attr title "ARP replies sent, vector(packetBytes)"
vector 113 manets.nodoMovil[6].wlan[0].mac packetDropNotAddressedToUs:vector(packetBytes) ETV
attr interpolationmode none
attr source packetDropReasonIsNotAddressedToUs(packetDropped)
attr title "packet drop: not addressed to us, vector(packetBytes)"
vector 114 manets.nodoFijo2.wlan[0].mac packetDropNotAddressedToUs:vector(packetBytes) ETV
attr interpolationmode none
attr source packetDropReasonIsNotAddressedToUs(packetDropped)
attr title "packet drop: not addressed to us, vector(packetBytes)"
vector 115 manets.nodoMovil[1].ipv4.arp arpRequestSent:vector(packetBytes) ETV
attr source arpRequestSent
attr title "ARP request sent, vector(packetBytes)"
vector 116 manets.nodoMovil[2].wlan[0].mac packetDropNotAddressedToUs:vector(packetBytes) ETV
attr interpolationmode none
attr source packetDropReasonIsNotAddressedToUs(packetDropped)
attr title "packet drop: not addressed to us, vector(packetBytes)"
vector 117 manets.nodoFijo2.ipv4.arp arpReplySent:vector(packetBytes) ETV
attr source arpReplySent
attr title "ARP replies sent, vector(packetBytes)"
vector 118 manets.nodoFijo2.udp packetReceived:vector(packetBytes) ETV
attr interpolationmode none
attr source packetReceived
attr title "packets received, vector(packetBytes)"
vector 119 manets.nodoFijo2.udp passedUpPk:vector(count) ETV
attr interpolationmode none
attr source packetSentToUpper
attr title "packets passed up, vector(count)"
vector 120 manets.nodoFijo2.app[0] echoedPk:vector(packetBytes) ETV
attr interpolationmode none
attr source packetSent
attr title "packets echoed, vector(packetBytes)"
vector 121 manets.nodoFijo2.udp packetSent:vector(packetBytes) ETV
attr interpolationmode none
attr source packetSent
attr title "packets sent, vector(packetBytes)"
vector 122 manets.nodoMovil[4].ipv4.arp arpReplySent:vector(packetBytes) ETV
attr source arpReplySent
attr title "ARP replies sent, vector(packetBytes)"
vector 123 manets.nodoMovil[4].ipv4.arp arpRequestSent:vector(packetBytes) ETV
attr source arpRequestSent
attr title "ARP request sent, vector(packetBytes)"
vector 124 manets.nodoMovil[5].ipv4.arp arpReplySent:vector(packetBytes) ETV
attr source arpReplySent
attr title "ARP replies sent, vector(packetBytes)"
vector 125 manets.nodoMovil[5].ipv4.arp arpRequestSent:vector(packetBytes) ETV
attr source arpRequestSent
attr title "ARP request sent, vector(packetBytes)"
vector 126 manets.nodoFijo1.ipv4.arp arpReplySent:vector(packetBytes) ETV
attr source arpReplySent
attr title "ARP replies sent, vector(packetBytes)"
vector 127 manets.nodoFijo1.udp packetReceived:vector(packetBytes) ETV
attr interpolationmode none
attr source packetReceived
attr title "packets received, vector(packetBytes)"
vector 128 manets.nodoFijo1.udp passedUpPk:vector(count) ETV
attr interpolationmode none
attr source packetSentToUpper
attr title "packets passed up, vector(count)"
vector 129 manets.nodoFijo1.app[0] packetReceived:vector(packetBytes) ETV
attr interpolationmode none
attr source packetReceived
attr title "packets received, vector(packetBytes)"
vector 130 manets.nodoFijo1.app[0] throughput:vector ETV
attr source throughput(packetReceived)
attr title "throughput, vector"
attr unit bps
vector 131 manets.nodoFijo1.app[0] rcvdPkLifetime:vector ETV
attr interpolationmode none
attr source dataAge(packetReceived)
attr title "received packet lifetime, vector"
attr unit s
vector 132 manets.nodoFijo1.app[0] rcvdPkSeqNo:vector ETV
attr interpolationmode none
attr source appPkSeqNo(packetReceived)
attr title "received packet sequence number, vector"
vector 133 manets.nodoMovil[1].ipv4.ip packetDropNoRouteFound:vector(packetBytes) ETV
attr interpolationmode none
attr source packetDropReasonIsNoRouteFound(packetDropped)
attr title "packet drop: no route found, vector(packetBytes)"
vector 134 manets.nodoMovil[4].ipv4.ip packetDropNoRouteFound:vector(packetBytes) ETV
attr interpolationmode none
attr source packetDropReasonIsNoRouteFound(packetDropped)
attr title "packet drop: no route found, vector(packetBytes)"
vector 135 manets.nodoMovil[5].ipv4.ip packetDropNoRouteFound:vector(packetBytes) ETV
attr interpolationmode none
attr source packetDropReasonIsNoRouteFound(packetDropped)
attr title "packet drop: no route found, vector(packetBytes)"
vector 136 manets.nodoFijo1.ipv4.ip packetDropNoRouteFound:vector(packetBytes) ETV
attr interpolationmode none
attr source packetDropReasonIsNoRouteFound(packetDropped)
attr title "packet drop: no route found, vector(packetBytes)"
0	0	0	0
0	0	0	0
0	0	0	4
1	0	0	0
1	0	0	0
1	0	0	4
2	0	0	0
2	0	0	0
2	0	0	4
3	0	0	0
3	0	0	0
3	0	0	4
4	0	0	0
4	0	0	0
4	0	0	4
5	0	0	0
5	0	0	0
5	0	0	4
6	0	0	0
6	0	0	0
6	0	0	4
7	0	0	0
7	0	0	0
7	0	0	4
8	0	0	0
8	0	0	0
8	0	0	4
9	0	0	1
9	7	0.065710343079	3
9	16	0.065982343079	1
9	81	0.105982742889	3
9	90	0.106254742889	1
9	110	0.173166544099	3
9	122	0.173438544099	1
9	150	0.22598352772	3
9	162	0.22625552772	1
9	185	0.25522234795	3
9	203	0.25549434795	1
9	338	0.33522302681	3
9	350	0.33549502681	1
9	401	0.375494746465	3
9	410	0.375766746465	1
9	502	0.441348930514	3
9	511	0.441620930514	1
9	780	0.631622140915	3
9	792	0.631894140915	1
9	813	0.663439089303	3
9	825	0.663711089303	1
9	915	0.703711338156	3
9	924	0.703983338156	1
9	975	0.756896751064	3
9	987	0.757168751064	1
9	1173	0.876579590362	3
9	1185	0.876851590362	1
9	1214	0.906563747491	3
9	1237	0.906835747491	2
9	1254	0.906850777129	1
9	1266	0.911895175771	3
9	1278	0.912167175771	1
9	1639	1.066896083147	3
9	1651	1.067168083147	1
9	1670	1.077168476902	3
9	1680	1.077440476902	1
9	1767	1.12744154353	3
9	1776	1.12771354353	1
9	1822	1.15658022868	3
9	1834	1.15685222868	1
9	1855	1.16156335819	3
9	1867	1.16183535819	1
9	1889	1.181562684539	3
9	1901	1.181834684539	1
9	2075	1.247108539018	3
9	2086	1.247380539018	1
9	2200	1.316836292486	3
9	2212	1.317108292486	1
9	2232	1.34183507734	3
9	2241	1.34210707734	1
9	2485	1.645824557329	3
9	2497	1.646096557329	1
9	2630	2.035823890142	3
9	2642	2.036095890142	1
9	2683	2.326369345789	3
9	2692	2.326641345789	1
9	2710	2.346096277499	3
9	2719	2.346368277499	1
9	2951	5.000242230968	3
9	2965	5.000482230968	1
9	2998	5.000924461933	3
9	3013	5.001164461933	1
9	3052	5.001407128951	3
9	3062	5.001847128951	1
9	3347	5.005300366407	3
9	3359	5.005540366407	1
9	3395	5.005982331617	3
9	3408	5.006222331617	1
9	3442	5.006463924158	3
9	3457	5.006903924158	1
9	3498	5.067468947281	3
9	3510	5.067740947281	1
9	3572	5.120501454079	3
9	3584	5.120773454079	1
9	3607	5.174748769807	3
9	3619	5.175020769807	1
9	3640	5.185021313585	3
9	3653	5.185293313585	1
9	3793	5.250442230139	3
9	3807	5.250882230139	1
9	3942	5.253088757238	3
9	3954	5.253528757238	1
9	4015	5.297742129138	3
9	4027	5.298014129138	1
9	4050	5.320502104306	3
9	4062	5.320774104306	1
9	4089	5.410773822858	3
9	4098	5.411045822858	1
9	4181	5.447118891846	3
9	4190	5.447390891846	1
9	4269	5.4677413162	3
9	4278	5.4680133162	1
9	4353	5.500442229313	3
9	4367	5.500882229313	1
9	4500	5.50308875719	3
9	4512	5.50352875719	1
9	4601	5.565293681833	3
9	4611	5.565565681833	1
9	4883	5.677392072339	3
9	4895	5.677664072339	1
9	4970	5.750442228487	3
9	4984	5.750882228487	1
9	5153	5.830897794959	3
9	5165	5.831169794959	1
9	5281	5.920898433129	3
9	5293	5.921170433129	1
9	5313	5.937665253833	3
9	5325	5.937937253833	1
9	5372	5.971922048602	3
9	5384	5.972194048602	1
9	5405	5.991921400881	3
9	5417	5.992193400881	1
9	5459	6.000442227663	3
9	5473	6.000882227663	1
9	5712	6.200896980782	3
9	5721	6.201168980782	1
9	5823	6.250442226839	3
9	5838	6.250682226839	1
9	5876	6.250924854516	3
9	5887	6.251364854516	1
9	6015	6.297998191973	3
9	6027	6.298270191973	1
9	6112	6.34039984665	3
9	6124	6.34067184665	1
9	6143	6.342193764343	3
9	6152	6.342465764343	1
9	6295	6.430672208442	3
9	6304	6.430944208442	1
9	6325	6.457811981304	3
9	6337	6.458083981304	1
9	6405	6.50040049142	3
9	6437	6.50067249142	2
9	6453	6.500881587775	1
9	6471	6.557998836089	3
9	6483	6.558270836089	1
9	6531	6.568270553733	3
9	6541	6.568542553733	1
9	6621	6.668084342204	3
9	6630	6.668356342204	1
9	6655	6.707812624867	3
9	6667	6.708084624867	1
9	6706	6.750441586983	3
9	6721	6.750881586983	1
9	6856	6.753088089639	3
9	6868	6.753528089639	1
9	7042	7.000441586191	3
9	7057	7.000881586191	1
9	7191	7.003088089652	3
9	7203	7.003528089652	1
9	7264	7.250441585401	3
9	7279	7.250881585401	1
9	7414	7.253088089672	3
9	7426	7.253528089672	1
9	7489	7.500441584613	3
9	7504	7.500881584613	1
9	7638	7.503088089695	3
9	7650	7.503528089695	1
9	7711	7.750441583825	3
9	7726	7.750881583825	1
9	7861	7.753088089721	3
9	7873	7.753528089721	1
9	7936	8.000441583039	3
9	7951	8.000881583039	1
9	8085	8.003088089749	3
9	8097	8.003528089749	1
9	8158	8.250441582255	3
9	8173	8.250881582255	1
9	8308	8.253088089785	3
9	8320	8.253528089785	1
9	8383	8.500441581471	3
9	8398	8.500881581471	1
9	8532	8.503088089822	3
9	8544	8.503528089822	1
9	8605	8.750441580689	3
9	8620	8.750881580689	1
9	8755	8.753088089862	3
9	8767	8.753528089862	1
9	8830	9.000441579909	3
9	8845	9.000881579909	1
9	8979	9.003088089909	3
9	8991	9.003528089909	1
9	9052	9.250441579129	3
9	9067	9.250881579129	1
9	9202	9.253088089955	3
9	9214	9.253528089955	1
9	9277	9.500441578352	3
9	9292	9.500881578352	1
9	9426	9.503088090009	3
9	9438	9.503528090009	1
9	9499	9.750441577575	3
9	9514	9.750881577575	1
9	9649	9.753088090064	3
9	9661	9.753528090064	1
9	9725	10.000441576801	3
9	9740	10.000881576801	1
9	9874	10.003088090125	3
9	9886	10.003528090125	1
9	9916	10.068999221923	3
9	9928	10.069271221923	1
9	10027	10.183772980203	3
9	10039	10.184044980203	1
9	10109	10.250441576027	3
9	10124	10.250881576027	1
9	10258	10.253088090188	3
9	10270	10.253528090188	1
9	10459	10.419359442732	3
9	10471	10.419631442732	1
9	10494	10.449271561139	3
9	10503	10.449543561139	1
9	10553	10.453237102228	3
9	10562	10.453509102228	1
9	10613	10.459631780396	3
9	10623	10.459903780396	1
9	10648	10.4993600647	3
9	10660	10.4996320647	1
9	10697	10.500441575255	3
9	10712	10.500881575255	1
9	10846	10.503088090256	3
9	10858	10.503528090256	1
9	10940	10.564317742125	3
9	10960	10.564589742125	1
9	10999	10.569272400818	3
9	11011	10.569544400818	1
9	11088	10.604045521428	3
9	11100	10.604317521428	1
9	11232	10.750441574484	3
9	11247	10.750881574484	1
9	11381	10.753088090327	3
9	11393	10.753528090327	1
9	11418	10.763510252734	3
9	11431	10.763782252734	1
9	11955	11.000441573714	3
9	11970	11.000881573714	1
9	12167	11.005009336055	3
9	12179	11.005281336055	1
9	12239	11.061742240754	3
9	12251	11.062014240754	1
9	12330	11.151741602949	3
9	12342	11.152013602949	1
9	12402	11.233783431338	3
9	12414	11.234055431338	1
9	12430	11.235281669993	3
9	12439	11.235553669993	1
9	12460	11.247237830178	3
9	12472	11.247509830178	1
9	12513	11.250441572946	3
9	12528	11.250793572946	1
9	12577	11.261740789373	3
9	12586	11.262012789373	1
9	12610	11.275009953834	3
9	12623	11.275281953834	1
9	12747	11.426974720364	3
9	12759	11.427246720364	1
9	12812	11.456975337479	3
9	12824	11.457247337479	1
9	12982	11.587510162532	3
9	12991	11.587782162532	1
9	13045	11.597238445502	3
9	13057	11.597510445502	1
9	13113	11.704147000661	3
9	13125	11.704419000661	1
9	13225	11.750442208959	3
9	13239	11.750882208959	1
9	13375	11.753089316027	3
9	13385	11.753529316027	1
9	13446	11.88414638681	3
9	13458	11.88441838681	1
9	13478	11.887247051489	3
9	13487	11.887519051489	1
9	13539	12.000442208157	3
9	13553	12.000882208157	1
9	13689	12.003089313281	3
9	13699	12.003529313281	1
9	13761	12.124419606326	3
9	13770	12.124691606326	1
9	13822	12.250442207357	3
9	13836	12.250882207357	1
9	13972	12.25308931054	3
9	13982	12.25352931054	1
9	14046	12.500442206557	3
9	14060	12.500882206557	1
9	14196	12.503089307801	3
9	14206	12.503529307801	1
9	14269	12.750442205758	3
9	14283	12.750882205758	1
9	14419	12.753089305065	3
9	14429	12.753529305065	1
9	14493	13.00044220496	3
9	14507	13.00088220496	1
9	14643	13.003089302336	3
9	14653	13.003529302336	1
9	14716	13.250442204163	3
9	14730	13.250882204163	1
9	14866	13.25308929961	3
9	14876	13.25352929961	1
9	14940	13.500442203367	3
9	14954	13.500882203367	1
9	15090	13.503089296887	3
9	15100	13.503529296887	1
9	15163	13.750442202573	3
9	15177	13.750882202573	1
9	15313	13.753089294171	3
9	15323	13.753529294171	1
9	15387	14.000442201779	3
9	15401	14.000882201779	1
9	15537	14.003089291456	3
9	15547	14.003529291456	1
9	15610	14.250442200986	3
9	15624	14.250882200986	1
9	15760	14.253089288744	3
9	15770	14.253529288744	1
9	15834	14.500442200194	3
9	15848	14.500882200194	1
9	15984	14.503089286037	3
9	15994	14.503529286037	1
9	16057	14.750442199403	3
9	16071	14.750882199403	1
9	16207	14.753089283337	3
9	16217	14.753529283337	1
9	16282	15.000442198613	3
9	16296	15.000882198613	1
9	16433	15.003089280638	3
9	16443	15.003529280638	1
9	16474	15.07568033683	3
9	16486	15.07595233683	1
9	16576	15.175953513971	3
9	16588	15.176225513971	1
9	16611	15.193292676408	3
9	16623	15.193564676408	1
9	16677	15.235952647177	3
9	16686	15.236224647177	1
9	16762	15.250442197824	3
9	16776	15.250882197824	1
9	16912	15.253089277943	3
9	16922	15.253529277943	1
9	16961	15.433565216308	3
9	16973	15.433837216308	1
9	16995	15.455186571886	3
9	17005	15.455458571886	1
9	17062	15.476637341746	3
9	17074	15.476909341746	1
9	17116	15.500442197036	3
9	17130	15.500882197036	1
9	17269	15.503089275253	3
9	17279	15.503529275253	1
9	17367	15.526636747976	3
9	17379	15.526908747976	1
9	17427	15.545460607828	3
9	17439	15.545732607828	1
9	17460	15.553565263696	3
9	17469	15.553837263696	1
9	17493	15.566909927916	3
9	17502	15.567181927916	1
9	17735	15.750442196249	3
9	17749	15.750882196249	1
9	17885	15.753089272567	3
9	17895	15.753529272567	1
9	17955	15.805459692484	3
9	17967	15.805731692484	1
9	18103	15.852904440373	3
9	18119	15.853176440373	1
9	18262	15.939116744791	3
9	18274	15.939388744791	1
9	18380	15.999116107836	3
9	18392	15.999388107836	1
9	18433	16.000442195463	3
9	18447	16.000882195463	1
9	18586	16.003089269886	3
9	18596	16.003529269886	1
9	18620	16.012903850635	3
9	18633	16.013175850635	1
9	18750	16.089115295072	3
9	18759	16.089387295072	1
9	19036	16.193177024223	3
9	19045	16.193449024223	1
9	19094	16.250442194677	3
9	19108	16.250882194677	1
9	19244	16.253089267206	3
9	19254	16.253529267206	1
9	19333	16.271032342392	3
9	19345	16.271304342392	1
9	19462	16.385486029053	3
9	19474	16.385758029053	1
9	19564	16.42458561391	3
9	19576	16.42485761391	1
9	19595	16.42575833203	3
9	19604	16.42603033203	1
9	19762	16.500441557142	3
9	19777	16.500881557142	1
9	19916	16.503088678756	3
9	19926	16.503528678756	1
9	19951	16.515486616448	3
9	19963	16.515758616448	1
9	19988	16.571032929612	3
9	20000	16.571304929612	1
9	20050	16.631304645591	3
9	20059	16.631576645591	1
9	20080	16.634857916432	3
9	20089	16.635129916432	1
9	20197	16.750441556405	3
9	20212	16.750881556405	1
9	20348	16.753088677501	3
9	20358	16.753528677501	1
9	20412	16.784586199664	3
9	20424	16.784858199664	1
9	20536	17.000441555669	3
9	20551	17.000881555669	1
9	20690	17.00308867625	3
9	20700	17.00352867625	1
9	20761	17.250441554935	3
9	20776	17.250881554935	1
9	20912	17.253088675003	3
9	20922	17.253528675003	1
9	20983	17.500441554203	3
9	20998	17.500881554203	1
9	21137	17.50308867376	3
9	21147	17.50352867376	1
9	21208	17.750441553471	3
9	21223	17.750881553471	1
9	21359	17.75308867252	3
9	21369	17.75352867252	1
9	21430	18.000441552742	3
9	21445	18.000881552742	1
9	21584	18.003088671285	3
9	21594	18.003528671285	1
9	21655	18.250441552013	3
9	21670	18.250881552013	1
9	21806	18.253088670055	3
9	21816	18.253528670055	1
9	21877	18.500441551287	3
9	21892	18.500881551287	1
9	22031	18.503088668826	3
9	22041	18.503528668826	1
9	22102	18.750441550561	3
9	22117	18.750881550561	1
9	22253	18.753088667603	3
9	22263	18.753528667603	1
9	22324	19.000441549837	3
9	22339	19.000881549837	1
9	22478	19.003088666383	3
9	22488	19.003528666383	1
9	22549	19.250441549115	3
9	22564	19.250881549115	1
9	22700	19.253088665167	3
9	22710	19.253528665167	1
9	22771	19.500441548394	3
9	22786	19.500881548394	1
9	22925	19.503088663955	3
9	22935	19.503528663955	1
9	22996	19.750441547675	3
9	23011	19.750881547675	1
9	23147	19.753088662748	3
9	23157	19.753528662748	1
10	0	0	1
10	243	0.29549434795	2
10	252	0.29576634795	1
10	279	0.303438544099	2
10	288	0.303710544099	1
10	370	0.355982343079	2
10	379	0.356254343079	1
10	656	0.541620930514	2
10	665	0.541892930514	1
10	1008	0.786305984249	2
10	1017	0.786577984249	1
10	1045	0.807168751064	2
10	1054	0.807440751064	1
10	1985	1.236835747491	2
10	2005	1.237107747491	1
10	2419	1.55183535819	2
10	2428	1.55210735819	1
10	2591	1.966096557329	2
10	2600	1.966368557329	1
10	2928	5	2
10	2937	5.00024	1
10	2969	5.000482230968	2
10	2986	5.000922230968	1
10	3412	5.006222331617	2
10	3431	5.006462331617	1
10	3741	5.240773454079	2
10	3750	5.241045454079	1
10	3772	5.25	2
10	3781	5.25044	1
10	4297	5.487740947281	2
10	4306	5.488012947281	1
10	4332	5.5	2
10	4341	5.50044	1
10	4571	5.555020769807	2
10	4580	5.555292769807	1
10	4949	5.75	2
10	4958	5.75044	1
10	5029	5.79062420499	2
10	5038	5.79089620499	1
10	5087	5.807390891846	2
10	5096	5.807662891846	1
10	5438	6	2
10	5447	6.00044	1
10	5802	6.25	2
10	5811	6.25044	1
10	6080	6.332194048602	2
10	6089	6.332466048602	1
10	6263	6.398270191973	2
10	6272	6.398542191973	1
10	6357	6.488083981304	2
10	6366	6.488355981304	1
10	6392	6.5	2
10	6412	6.50044	1
10	6686	6.75	2
10	6695	6.75044	1
10	6947	6.79067184665	2
10	6956	6.79094384665	1
10	7022	7	2
10	7031	7.00044	1
10	7244	7.25	2
10	7253	7.25044	1
10	7469	7.5	2
10	7478	7.50044	1
10	7691	7.75	2
10	7700	7.75044	1
10	7916	8	2
10	7925	8.00044	1
10	8138	8.25	2
10	8147	8.25044	1
10	8363	8.5	2
10	8372	8.50044	1
10	8585	8.75	2
10	8594	8.75044	1
10	8810	9	2
10	8819	9.00044	1
10	9032	9.25	2
10	9041	9.25044	1
10	9257	9.5	2
10	9266	9.50044	1
10	9479	9.75	2
10	9488	9.75044	1
10	9705	10	2
10	9714	10.00044	1
10	10089	10.25	2
10	10098	10.25044	1
10	10300	10.354044980203	2
10	10309	10.354316980203	1
10	10364	10.379271221923	2
10	10373	10.379543221923	1
10	10677	10.5	2
10	10686	10.50044	1
10	11212	10.75	2
10	11221	10.75044	1
10	11546	10.791468029147	2
10	11555	10.791740029147	1
10	11606	10.833509102228	2
10	11615	10.833781102228	1
10	11778	10.909631442732	2
10	11787	10.909903442732	1
10	11935	11	2
10	11944	11.00044	1
10	12492	11.25	2
10	12501	11.25044	1
10	12544	11.255281336055	2
10	12553	11.255553336055	1
10	12778	11.437246720364	2
10	12788	11.437518720364	1
10	12948	11.547509830178	2
10	12957	11.547781830178	1
10	13204	11.75	2
10	13213	11.75044	1
10	13518	12	2
10	13527	12.00044	1
10	13723	12.024419000661	2
10	13732	12.024691000661	1
10	13801	12.25	2
10	13810	12.25044	1
10	14025	12.5	2
10	14034	12.50044	1
10	14248	12.75	2
10	14257	12.75044	1
10	14472	13	2
10	14481	13.00044	1
10	14695	13.25	2
10	14704	13.25044	1
10	14919	13.5	2
10	14928	13.50044	1
10	15142	13.75	2
10	15151	13.75044	1
10	15366	14	2
10	15375	14.00044	1
10	15589	14.25	2
10	15598	14.25044	1
10	15813	14.5	2
10	15822	14.50044	1
10	16036	14.75	2
10	16045	14.75044	1
10	16261	15	2
10	16270	15.00044	1
10	16645	15.20595233683	2
10	16654	15.20622433683	1
10	16741	15.25	2
10	16750	15.25044	1
10	17095	15.5	2
10	17104	15.50044	1
10	17294	15.506909341746	2
10	17303	15.507181341746	1
10	17614	15.643564676408	2
10	17623	15.643836676408	1
10	17714	15.75	2
10	17723	15.75044	1
10	17921	15.798842548916	2
10	17930	15.799114548916	1
10	17988	15.825458571886	2
10	17997	15.825730571886	1
10	18412	16	2
10	18421	16.00044	1
10	18877	16.133176440373	2
10	18886	16.133448440373	1
10	19073	16.25	2
10	19082	16.25044	1
10	19624	16.431304342392	2
10	19633	16.431576342392	1
10	19742	16.5	2
10	19751	16.50044	1
10	20144	16.73485761391	2
10	20153	16.73512961391	1
10	20177	16.75	2
10	20186	16.75044	1
10	20447	16.825758029053	2
10	20456	16.826030029053	1
10	20516	17	2
10	20525	17.00044	1
10	20741	17.25	2
10	20750	17.25044	1
10	20963	17.5	2
10	20972	17.50044	1
10	21188	17.75	2
10	21197	17.75044	1
10	21410	18	2
10	21419	18.00044	1
10	21635	18.25	2
10	21644	18.25044	1
10	21857	18.5	2
10	21866	18.50044	1
10	22082	18.75	2
10	22091	18.75044	1
10	22304	19	2
10	22313	19.00044	1
10	22529	19.25	2
10	22538	19.25044	1
10	22751	19.5	2
10	22760	19.50044	1
10	22976	19.75	2
10	22985	19.75044	1
10	23199	20	2
11	0	0	1
11	192	0.255222870993	3
11	228	0.255494870993	1
11	532	0.446350363793	3
11	550	0.446622363793	1
11	623	0.495495003483	3
11	632	0.495767003483	1
11	725	0.600742947472	3
11	734	0.601014947472	1
11	878	0.691016966042	3
11	896	0.691288966042	1
11	1079	0.846256779472	3
11	1097	0.846528779472	1
11	1142	0.873713020905	3
11	1160	0.873985020905	1
11	1300	0.916563560593	3
11	1318	0.916835560593	1
11	1332	0.923985153222	3
11	1341	0.924257153222	1
11	1360	0.936622497093	3
11	1369	0.936894497093	1
11	1738	1.125278173999	3
11	1756	1.125550173999	1
11	2045	1.242168578513	3
11	2063	1.242440578513	1
11	2104	1.256528912782	3
11	2113	1.256800912782	1
11	2162	1.287126030115	3
11	2180	1.287398030115	1
11	2259	1.356835694029	3
11	2268	1.357107694029	1
11	2286	1.37527628877	3
11	2295	1.37554828877	1
11	2316	1.39244164594	3
11	2334	1.39271364594	1
11	2353	1.482440711582	3
11	2362	1.482712711582	1
11	2551	1.757398163857	3
11	2560	1.757670163857	1
11	3101	5.002089610461	3
11	3118	5.002329610461	1
11	3148	5.002771789705	3
11	3165	5.003011789705	1
11	3195	5.003254137431	3
11	3211	5.003694137431	1
11	3245	5.004136485162	3
11	3266	5.004376485162	1
11	3300	5.004618669321	3
11	3315	5.005058669321	1
11	3846	5.251324712426	3
11	3860	5.251764712426	1
11	3894	5.252207061319	3
11	3913	5.252647061319	1
11	3982	5.288015399316	3
11	4000	5.288287399316	1
11	4119	5.43050194149	3
11	4137	5.43077394149	1
11	4212	5.451375706086	3
11	4230	5.451647706086	1
11	4404	5.50132471238	3
11	4418	5.50176471238	1
11	4452	5.502207062447	3
11	4471	5.502647062447	1
11	4636	5.581647841576	3
11	4663	5.581919841576	1
11	4711	5.588287535179	3
11	4729	5.588559535179	1
11	4766	5.606992270143	3
11	4775	5.607264270143	1
11	4849	5.635295252347	3
11	4867	5.635567252347	1
11	4920	5.715567387821	3
11	4929	5.715839387821	1
11	5060	5.800774077653	3
11	5070	5.801046077653	1
11	5218	5.877266287379	3
11	5236	5.877538287379	1
11	5555	6.087938526883	3
11	5573	6.088210526883	1
11	5590	6.107450619279	3
11	5610	6.107722619279	2
11	5632	6.10772450022	1
11	5740	6.218210662821	3
11	5749	6.218482662821	1
11	5926	6.251807316399	3
11	5938	6.252247316399	1
11	5973	6.25268966999	3
11	5989	6.25304166999	1
11	6229	6.360127292724	3
11	6247	6.360399292724	1
11	6502	6.561444248785	3
11	6520	6.561716248785	1
11	6561	6.581716384746	3
11	6570	6.581988384746	1
11	6595	6.660399429346	3
11	6604	6.660671429346	1
11	6762	6.75132404482	3
11	6774	6.75176404482	1
11	6808	6.752206400759	3
11	6827	6.752646400759	1
11	7097	7.001324044826	3
11	7109	7.001764044826	1
11	7143	7.002206401941	3
11	7162	7.002646401941	1
11	7320	7.251324044836	3
11	7332	7.251764044836	1
11	7366	7.252206403129	3
11	7385	7.252646403129	1
11	7544	7.501324044848	3
11	7556	7.501764044848	1
11	7590	7.502206404319	3
11	7609	7.502646404319	1
11	7767	7.751324044861	3
11	7779	7.751764044861	1
11	7813	7.75220640551	3
11	7832	7.75264640551	1
11	7991	8.001324044875	3
11	8003	8.001764044875	1
11	8037	8.002206406702	3
11	8056	8.002646406702	1
11	8214	8.251324044893	3
11	8226	8.251764044893	1
11	8260	8.2522064079	3
11	8279	8.2526464079	1
11	8438	8.501324044911	3
11	8450	8.501764044911	1
11	8484	8.502206409098	3
11	8503	8.502646409098	1
11	8661	8.751324044931	3
11	8673	8.751764044931	1
11	8707	8.752206410298	3
11	8726	8.752646410298	1
11	8885	9.001324044954	3
11	8897	9.001764044954	1
11	8931	9.002206411503	3
11	8950	9.002646411503	1
11	9108	9.251324044977	3
11	9120	9.251764044977	1
11	9154	9.252206412708	3
11	9173	9.252646412708	1
11	9332	9.501324045005	3
11	9344	9.501764045005	1
11	9378	9.502206413918	3
11	9397	9.502646413918	1
11	9555	9.751324045032	3
11	9567	9.751764045032	1
11	9601	9.752206415127	3
11	9620	9.752646415127	1
11	9780	10.001324045063	3
11	9792	10.001764045063	1
11	9826	10.002206416342	3
11	9845	10.002646416342	1
11	9993	10.149359893827	3
11	10011	10.149631893827	1
11	10060	10.23963203272	3
11	10069	10.23990403272	1
11	10164	10.251324045094	3
11	10176	10.251764045094	1
11	10210	10.252206417557	3
11	10229	10.252646417557	1
11	10520	10.44954568953	3
11	10541	10.44981768953	1
11	10583	10.454463663529	3
11	10601	10.454735663529	1
11	10752	10.501324045128	3
11	10764	10.501764045128	1
11	10798	10.502206418775	3
11	10817	10.502646418775	1
11	10911	10.514735802579	3
11	10920	10.515007802579	1
11	10950	10.564319432583	3
11	10983	10.564591432583	1
11	11149	10.616418143192	3
11	11158	10.616690143192	1
11	11287	10.751324045164	3
11	11299	10.751764045164	1
11	11333	10.752206419997	3
11	11352	10.752646419997	1
11	11517	10.78669215862	3
11	11535	10.78696415862	1
11	11580	10.824591572306	3
11	11589	10.824863572306	1
11	11639	10.84981782957	3
11	11648	10.85008982957	1
11	11738	10.906702138755	3
11	11768	10.906974138755	1
11	12010	11.001324045201	3
11	12022	11.001764045201	1
11	12056	11.00220642122	3
11	12076	11.00264642122	1
11	12109	11.003000534238	3
11	12121	11.003352534238	1
11	12209	11.017246639181	3
11	12218	11.017518639181	1
11	12268	11.073598842668	3
11	12277	11.073870842668	1
11	12711	11.373600718961	3
11	12729	11.373872718961	1
11	12847	11.472288690947	3
11	12865	11.472560690947	1
11	12883	11.494056723769	3
11	12902	11.494328723769	1
11	13145	11.714328864136	3
11	13156	11.714600864136	1
11	13174	11.732560831413	3
11	13183	11.732832831413	1
11	13279	11.75132465802	3
11	13291	11.75176465802	1
11	13325	11.752207037599	3
11	13344	11.752647037599	1
11	13593	12.001324656647	3
11	13605	12.001764656647	1
11	13639	12.002207037414	3
11	13658	12.002647037414	1
11	13876	12.251324655276	3
11	13888	12.251764655276	1
11	13922	12.252207037233	3
11	13941	12.252647037233	1
11	14100	12.501324653907	3
11	14112	12.501764653907	1
11	14146	12.502207037052	3
11	14165	12.502647037052	1
11	14323	12.751324652539	3
11	14335	12.751764652539	1
11	14369	12.752207036874	3
11	14388	12.752647036874	1
11	14547	13.001324651174	3
11	14559	13.001764651174	1
11	14593	13.002207036699	3
11	14612	13.002647036699	1
11	14770	13.251324649811	3
11	14782	13.251764649811	1
11	14816	13.252207036528	3
11	14835	13.252647036528	1
11	14994	13.501324648449	3
11	15006	13.501764648449	1
11	15040	13.502207036358	3
11	15059	13.502647036358	1
11	15217	13.751324647091	3
11	15229	13.751764647091	1
11	15263	13.752207036192	3
11	15282	13.752647036192	1
11	15441	14.001324645734	3
11	15453	14.001764645734	1
11	15487	14.002207036027	3
11	15506	14.002647036027	1
11	15664	14.251324644378	3
11	15676	14.251764644378	1
11	15710	14.252207035865	3
11	15729	14.252647035865	1
11	15888	14.501324643025	3
11	15900	14.501764643025	1
11	15934	14.502207035704	3
11	15953	14.502647035704	1
11	16111	14.751324641675	3
11	16123	14.751764641675	1
11	16157	14.75220703555	3
11	16176	14.75264703555	1
11	16337	15.001324640325	3
11	16349	15.001764640325	1
11	16383	15.002207035394	3
11	16402	15.002647035394	1
11	16816	15.251324638978	3
11	16828	15.251764638978	1
11	16862	15.252207035243	3
11	16881	15.252647035243	1
11	17030	15.462358200537	3
11	17048	15.462630200537	1
11	17171	15.501324637633	3
11	17183	15.501764637633	1
11	17217	15.502207035094	3
11	17237	15.502647035094	1
11	17335	15.516637163749	3
11	17353	15.516909163749	1
11	17587	15.624666367188	3
11	17596	15.624938367188	1
11	17651	15.686226821992	3
11	17669	15.686498821992	1
11	17789	15.75132463629	3
11	17801	15.75176463629	1
11	17835	15.752207034947	3
11	17854	15.752647034947	1
11	18079	15.852630344851	3
11	18088	15.852902344851	1
11	18142	15.866909307995	3
11	18151	15.867181307995	1
11	18231	15.924940381582	3
11	18249	15.925212381582	1
11	18488	16.001324634949	3
11	18500	16.001764634949	1
11	18534	16.002207034804	3
11	18554	16.002647034804	1
11	18724	16.08649896654	3
11	18733	16.08677096654	1
11	18787	16.113839117359	3
11	18805	16.114111117359	1
11	18846	16.120759732688	3
11	18864	16.121031732688	1
11	18909	16.154038097484	3
11	18918	16.154310097484	1
11	19006	16.184039967432	3
11	19024	16.184311967432	1
11	19148	16.251324633609	3
11	19160	16.251764633609	1
11	19194	16.252207034662	3
11	19213	16.252647034662	1
11	19367	16.29103187695	3
11	19376	16.29130387695	1
11	19402	16.34966318463	3
11	19420	16.34993518463	1
11	19434	16.364111261853	3
11	19443	16.364383261853	1
11	19533	16.416007047465	3
11	19551	16.416279047465	1
11	19818	16.501324046496	3
11	19830	16.501764046496	1
11	19864	16.502206448747	3
11	19884	16.502646448747	1
11	20252	16.751324046576	3
11	20264	16.751764046576	1
11	20298	16.752206450025	3
11	20317	16.752646450025	1
11	20375	16.756279192506	3
11	20384	16.756551192506	1
11	20479	16.849935330086	3
11	20488	16.850207330086	1
11	20592	17.001324046658	3
11	20604	17.001764046658	1
11	20638	17.002206451307	3
11	20658	17.002646451307	1
11	20816	17.251324046743	3
11	20828	17.251764046743	1
11	20862	17.252206452592	3
11	20881	17.252646452592	1
11	21039	17.501324046829	3
11	21051	17.501764046829	1
11	21085	17.502206453878	3
11	21105	17.502646453878	1
11	21263	17.751324046916	3
11	21275	17.751764046916	1
11	21309	17.752206455167	3
11	21328	17.752646455167	1
11	21486	18.001324047006	3
11	21498	18.001764047006	1
11	21532	18.002206456459	3
11	21552	18.002646456459	1
11	21710	18.251324047098	3
11	21722	18.251764047098	1
11	21756	18.252206457753	3
11	21775	18.252646457753	1
11	21933	18.501324047191	3
11	21945	18.501764047191	1
11	21979	18.502206459048	3
11	21999	18.502646459048	1
11	22157	18.751324047287	3
11	22169	18.751764047287	1
11	22203	18.752206460348	3
11	22222	18.752646460348	1
11	22380	19.001324047384	3
11	22392	19.001764047384	1
11	22426	19.002206461649	3
11	22446	19.002646461649	1
11	22604	19.251324047482	3
11	22616	19.251764047482	1
11	22650	19.252206462951	3
11	22669	19.252646462951	1
11	22827	19.501324047583	3
11	22839	19.501764047583	1
11	22873	19.502206464258	3
11	22893	19.502646464258	1
11	23051	19.751324047687	3
11	23063	19.751764047687	1
11	23097	19.752206465566	3
11	23116	19.752646465566	1
12	0	0	1
12	310	0.325494870993	2
12	319	0.325766870993	1
12	750	0.606622363793	2
12	759	0.606894363793	1
12	1386	0.945003844798	2
12	1395	0.945275844798	1
12	1582	1.026528779472	2
12	1591	1.026800779472	1
12	1610	1.041014947472	2
12	1619	1.041286947472	1
12	1794	1.146835560593	2
12	1803	1.147107560593	1
12	2131	1.273985020905	2
12	2140	1.274257020905	1
12	2449	1.582440578513	2
12	2458	1.582712578513	1
12	2523	1.717398030115	2
12	2532	1.717670030115	1
12	3169	5.003011789705	2
12	3182	5.003251789705	1
12	3219	5.003694137431	2
12	3232	5.004134137431	1
12	3868	5.251764712426	2
12	3881	5.252204712426	1
12	4241	5.46077394149	2
12	4250	5.46104594149	1
12	4426	5.50176471238	2
12	4439	5.50220471238	1
12	4635	5.581647706086	2
12	4662	5.581919706086	1
12	4710	5.588287399316	2
12	4728	5.588559399316	1
12	4998	5.767264270143	2
12	5007	5.767536270143	1
12	5253	5.915567252347	2
12	5262	5.915839252347	1
12	5341	5.947178147687	2
12	5350	5.947450147687	1
12	5946	6.252247316399	2
12	5959	6.252687316399	1
12	6199	6.358210526883	2
12	6208	6.358482526883	1
12	6782	6.75176404482	2
12	6795	6.75220404482	1
12	6886	6.761716248785	2
12	6896	6.761988248785	1
12	6978	6.800399292724	2
12	6987	6.800671292724	1
12	7117	7.001764044826	2
12	7130	7.002204044826	1
12	7340	7.251764044836	2
12	7353	7.252204044836	1
12	7564	7.501764044848	2
12	7577	7.502204044848	1
12	7787	7.751764044861	2
12	7800	7.752204044861	1
12	8011	8.001764044875	2
12	8024	8.002204044875	1
12	8234	8.251764044893	2
12	8247	8.252204044893	1
12	8458	8.501764044911	2
12	8471	8.502204044911	1
12	8681	8.751764044931	2
12	8694	8.752204044931	1
12	8905	9.001764044954	2
12	8918	9.002204044954	1
12	9128	9.251764044977	2
12	9141	9.252204044977	1
12	9352	9.501764045005	2
12	9365	9.502204045005	1
12	9575	9.751764045032	2
12	9588	9.752204045032	1
12	9800	10.001764045063	2
12	9813	10.002204045063	1
12	10184	10.251764045094	2
12	10197	10.252204045094	1
12	10772	10.501764045128	2
12	10785	10.502204045128	1
12	11030	10.579631893827	2
12	11041	10.579903893827	1
12	11042	10.579903893827	2
12	11065	10.580175893827	1
12	11118	10.604591432583	2
12	11127	10.604863432583	1
12	11307	10.751764045164	2
12	11320	10.752204045164	1
12	11697	10.904735663529	2
12	11706	10.905007663529	1
12	11723	10.906690143192	2
12	11743	10.906962143192	1
12	11841	10.953326342176	2
12	11850	10.953598342176	1
12	11905	10.986974138755	2
12	11914	10.987246138755	1
12	12030	11.001764045201	2
12	12043	11.002204045201	1
12	12919	11.532560690947	2
12	12928	11.532832690947	1
12	13085	11.694328723769	2
12	13094	11.694600723769	1
12	13299	11.75176465802	2
12	13312	11.75220465802	1
12	13613	12.001764656647	2
12	13626	12.002204656647	1
12	13896	12.251764655276	2
12	13909	12.252204655276	1
12	14120	12.501764653907	2
12	14133	12.502204653907	1
12	14343	12.751764652539	2
12	14356	12.752204652539	1
12	14567	13.001764651174	2
12	14580	13.002204651174	1
12	14790	13.251764649811	2
12	14803	13.252204649811	1
12	15014	13.501764648449	2
12	15027	13.502204648449	1
12	15237	13.751764647091	2
12	15250	13.752204647091	1
12	15461	14.001764645734	2
12	15474	14.002204645734	1
12	15684	14.251764644378	2
12	15697	14.252204644378	1
12	15908	14.501764643025	2
12	15921	14.502204643025	1
12	16131	14.751764641675	2
12	16144	14.752204641675	1
12	16357	15.001764640325	2
12	16370	15.002204640325	1
12	16836	15.251764638978	2
12	16849	15.252204638978	1
12	17191	15.501764637633	2
12	17204	15.502204637633	1
12	17522	15.592630200537	2
12	17531	15.592902200537	1
12	17809	15.75176463629	2
12	17822	15.75220463629	1
12	18199	15.906909163749	2
12	18208	15.907181163749	1
12	18292	15.946498821992	2
12	18301	15.946770821992	1
12	18321	15.953765567257	2
12	18330	15.954037567257	1
12	18347	15.954938367188	2
12	18356	15.955210367188	1
12	18508	16.001764634949	2
12	18521	16.002204634949	1
12	19168	16.251764633609	2
12	19181	16.252204633609	1
12	19273	16.261031732688	2
12	19282	16.261303732688	1
12	19305	16.264111117359	2
12	19314	16.264383117359	1
12	19686	16.47993518463	2
12	19695	16.48020718463	1
12	19838	16.501764046496	2
12	19851	16.502204046496	1
12	20112	16.656279047465	2
12	20121	16.656551047465	1
12	20272	16.751764046576	2
12	20285	16.752204046576	1
12	20612	17.001764046658	2
12	20625	17.002204046658	1
12	20836	17.251764046743	2
12	20849	17.252204046743	1
12	21059	17.501764046829	2
12	21072	17.502204046829	1
12	21283	17.751764046916	2
12	21296	17.752204046916	1
12	21506	18.001764047006	2
12	21519	18.002204047006	1
12	21730	18.251764047098	2
12	21743	18.252204047098	1
12	21953	18.501764047191	2
12	21966	18.502204047191	1
12	22177	18.751764047287	2
12	22190	18.752204047287	1
12	22400	19.001764047384	2
12	22413	19.002204047384	1
12	22624	19.251764047482	2
12	22637	19.252204047482	1
12	22847	19.501764047583	2
12	22860	19.502204047583	1
12	23071	19.751764047687	2
12	23084	19.752204047687	1
13	0	0	1
13	41	0.074949612143	3
13	53	0.075221612143	1
13	112	0.173166747712	3
13	130	0.173438747712	1
13	152	0.225983731488	3
13	170	0.226255731488	1
13	190	0.255222808784	3
13	223	0.255494808784	1
13	340	0.3352232309	3
13	358	0.3354952309	1
13	436	0.41343976328	3
13	448	0.41371176328	1
13	468	0.415983521931	3
13	480	0.416255521931	1
13	530	0.446350300692	3
13	542	0.446622300692	1
13	876	0.6910169018	3
13	888	0.6912889018	1
13	943	0.756623346472	3
13	955	0.756895346472	1
13	977	0.756896956396	3
13	995	0.757168956396	1
13	1077	0.846256714506	3
13	1089	0.846528714506	1
13	1140	0.873712955811	3
13	1152	0.873984955811	1
13	1216	0.906563953264	3
13	1245	0.906835953264	1
13	1268	0.91189538156	3
13	1286	0.91216738156	1
13	1298	0.916563495299	3
13	1310	0.916835495299	1
13	1414	0.946852775726	3
13	1427	0.947124775726	1
13	1479	0.966563351088	3
13	1491	0.966835351088	1
13	1519	1.01189532474	3
13	1531	1.01216732474	1
13	1551	1.021289947196	3
13	1563	1.021561947196	1
13	1736	1.125278107733	3
13	1748	1.125550107733	1
13	1824	1.156580435193	3
13	1842	1.156852435193	1
13	1857	1.161563564717	3
13	1875	1.161835564717	1
13	2043	1.242168511702	3
13	2055	1.242440511702	1
13	2160	1.287125963095	3
13	2172	1.287397963095	1
13	2314	1.392441578429	3
13	2326	1.392713578429	1
13	2388	1.535551152533	3
13	2400	1.535823152533	1
13	2487	1.645824765291	3
13	2505	1.646096765291	1
13	2954	5.000242448992	3
13	2972	5.000482448992	1
13	3001	5.00092467996	3
13	3019	5.00116467996	1
13	3054	5.001407346978	3
13	3066	5.001847346978	1
13	3099	5.002089526222	3
13	3111	5.002329526222	1
13	3146	5.002771705463	3
13	3159	5.003011705463	1
13	3193	5.003254053187	3
13	3207	5.003694053187	1
13	3243	5.004136400913	3
13	3258	5.004376400913	1
13	3271	5.004377438178	3
13	3284	5.004617438178	1
13	3297	5.00461858507	3
13	3308	5.00505858507	1
13	3319	5.005059622335	3
13	3335	5.005299622335	1
13	3370	5.005541587544	3
13	3386	5.005981587544	1
13	3532	5.080228709946	3
13	3544	5.080500709946	1
13	3609	5.17474898836	3
13	3627	5.17502098836	1
13	3709	5.227742169267	3
13	3721	5.228014169267	1
13	3796	5.250442448923	3
13	3811	5.250882448923	1
13	3844	5.251324627038	3
13	3856	5.251764627038	1
13	3892	5.252206975927	3
13	3906	5.252646975927	1
13	3917	5.252648012757	3
13	3933	5.253088012757	1
13	3980	5.288015313759	3
13	3992	5.288287313759	1
13	4017	5.297742348065	3
13	4035	5.298014348065	1
13	4052	5.320502323302	3
13	4070	5.320774323302	1
13	4117	5.430501855276	3
13	4129	5.430773855276	1
13	4210	5.451375619776	3
13	4222	5.451647619776	1
13	4356	5.500442448856	3
13	4371	5.500882448856	1
13	4402	5.501324625839	3
13	4414	5.501764625839	1
13	4450	5.502206975902	3
13	4464	5.502646975902	1
13	4475	5.502648012293	3
13	4491	5.503088012293	1
13	4529	5.50502200469	3
13	4541	5.50529400469	1
13	4639	5.581648656506	3
13	4675	5.581920656506	1
13	4847	5.635295165189	3
13	4859	5.635567165189	1
13	5119	5.817665299598	3
13	5132	5.817937299598	1
13	5217	5.877266199107	3
13	5232	5.877538199107	1
13	5491	6.050127101302	3
13	5503	6.050399101302	1
13	5554	6.087938437642	3
13	5569	6.088210437642	1
13	5598	6.107452410889	3
13	5628	6.107724410889	1
13	5648	6.137725446273	3
13	5660	6.137997446273	1
13	5769	6.237539235533	3
13	5781	6.237811235533	1
13	5850	6.250683464462	3
13	5862	6.250923464462	1
13	5898	6.251366092141	3
13	5910	6.251806092141	1
13	5924	6.251807226404	3
13	5936	6.252247226404	1
13	5972	6.252689579991	3
13	5987	6.253041579991	1
13	6047	6.301171024192	3
13	6059	6.301443024192	1
13	6228	6.360127202232	3
13	6243	6.360399202232	1
13	6501	6.561444157367	3
13	6516	6.561716157367	1
13	6732	6.750882823319	3
13	6746	6.751322823319	1
13	6760	6.75132395253	3
13	6772	6.75176395253	1
13	6807	6.752206308465	3
13	6825	6.752646308465	1
13	6831	6.752647342655	3
13	6847	6.753087342655	1
13	7068	7.000882824705	3
13	7081	7.001322824705	1
13	7095	7.001323951389	3
13	7107	7.001763951389	1
13	7142	7.0022063085	3
13	7160	7.0026463085	1
13	7166	7.002647342249	3
13	7182	7.003087342249	1
13	7290	7.250882826093	3
13	7304	7.251322826093	1
13	7318	7.251323950251	3
13	7330	7.251763950251	1
13	7365	7.25220630854	3
13	7383	7.25264630854	1
13	7389	7.252647341847	3
13	7405	7.253087341847	1
13	7515	7.500882827484	3
13	7528	7.501322827484	1
13	7542	7.501323949117	3
13	7554	7.501763949117	1
13	7589	7.502206308584	3
13	7607	7.502646308584	1
13	7613	7.502647341448	3
13	7629	7.503087341448	1
13	7737	7.750882828875	3
13	7751	7.751322828875	1
13	7765	7.751323947985	3
13	7777	7.751763947985	1
13	7812	7.75220630863	3
13	7830	7.75264630863	1
13	7836	7.752647341051	3
13	7852	7.753087341051	1
13	7962	8.000882830267	3
13	7975	8.001322830267	1
13	7989	8.001323946855	3
13	8001	8.001763946855	1
13	8036	8.002206308678	3
13	8054	8.002646308678	1
13	8060	8.002647340656	3
13	8076	8.003087340656	1
13	8184	8.250882831662	3
13	8198	8.251322831662	1
13	8212	8.251323945728	3
13	8224	8.251763945728	1
13	8259	8.252206308731	3
13	8277	8.252646308731	1
13	8283	8.252647340267	3
13	8299	8.253087340267	1
13	8409	8.500882833057	3
13	8422	8.501322833057	1
13	8436	8.501323944603	3
13	8448	8.501763944603	1
13	8483	8.502206308786	3
13	8501	8.502646308786	1
13	8507	8.502647339878	3
13	8523	8.503087339878	1
13	8631	8.750882834455	3
13	8645	8.751322834455	1
13	8659	8.751323943481	3
13	8671	8.751763943481	1
13	8706	8.752206308844	3
13	8724	8.752646308844	1
13	8730	8.752647339491	3
13	8746	8.753087339491	1
13	8856	9.000882835855	3
13	8869	9.001322835855	1
13	8883	9.001323942362	3
13	8895	9.001763942362	1
13	8930	9.002206308908	3
13	8948	9.002646308908	1
13	8954	9.00264733911	3
13	8970	9.00308733911	1
13	9078	9.250882837255	3
13	9092	9.251322837255	1
13	9106	9.251323941246	3
13	9118	9.251763941246	1
13	9153	9.252206308972	3
13	9171	9.252646308972	1
13	9177	9.252647338728	3
13	9193	9.253087338728	1
13	9303	9.500882838657	3
13	9316	9.501322838657	1
13	9330	9.501323940133	3
13	9342	9.501763940133	1
13	9377	9.502206309042	3
13	9395	9.502646309042	1
13	9401	9.502647338354	3
13	9417	9.503087338354	1
13	9525	9.750882840061	3
13	9539	9.751322840061	1
13	9553	9.751323939021	3
13	9565	9.751763939021	1
13	9600	9.752206309112	3
13	9618	9.752646309112	1
13	9624	9.752647337977	3
13	9640	9.753087337977	1
13	9751	10.000882841467	3
13	9764	10.001322841467	1
13	9778	10.001323937914	3
13	9790	10.001763937914	1
13	9825	10.002206309189	3
13	9843	10.002646309189	1
13	9849	10.002647337607	3
13	9865	10.003087337607	1
13	9952	10.089086690575	3
13	9964	10.089358690575	1
13	9992	10.149359786004	3
13	10007	10.149631786004	1
13	10135	10.250882842873	3
13	10148	10.251322842873	1
13	10162	10.251323936807	3
13	10174	10.251763936807	1
13	10209	10.252206309266	3
13	10227	10.252646309266	1
13	10233	10.252647337238	3
13	10249	10.253087337238	1
13	10332	10.369272487771	3
13	10344	10.369544487771	1
13	10396	10.384046230669	3
13	10408	10.384318230669	1
13	10518	10.449545580342	3
13	10537	10.449817580342	1
13	10582	10.454463554319	3
13	10597	10.454735554319	1
13	10723	10.500882844282	3
13	10736	10.501322844282	1
13	10750	10.501323935705	3
13	10762	10.501763935705	1
13	10797	10.502206309348	3
13	10815	10.502646309348	1
13	10821	10.502647336872	3
13	10837	10.503087336872	1
13	10949	10.564319322874	3
13	10979	10.564591322874	1
13	11258	10.750882845692	3
13	11271	10.751322845692	1
13	11284	10.751323934604	3
13	11295	10.751763934604	1
13	11331	10.752206309433	3
13	11348	10.752646309433	1
13	11356	10.752647336511	3
13	11372	10.753087336511	1
13	11479	10.774736582553	3
13	11491	10.775008582553	1
13	11515	10.786692047899	3
13	11527	10.786964047899	1
13	11736	10.90670202749	3
13	11763	10.90697402749	1
13	11869	10.956701966913	3
13	11881	10.956973966913	1
13	11981	11.000882847103	3
13	11994	11.001322847103	1
13	12007	11.001323933506	3
13	12018	11.001763933506	1
13	12054	11.002206309521	3
13	12072	11.002646309521	1
13	12080	11.00264733615	3
13	12093	11.00299933615	1
13	12106	11.003000422535	3
13	12117	11.003352422535	1
13	12135	11.003783524525	3
13	12147	11.004055524525	1
13	12366	11.186965075696	3
13	12378	11.187237075696	1
13	12646	11.302015494102	3
13	12658	11.302287494102	1
13	12709	11.373600605577	3
13	12721	11.373872605577	1
13	12845	11.472288577116	3
13	12857	11.472560577116	1
13	12881	11.494056609839	3
13	12894	11.494328609839	1
13	13012	11.59387363197	3
13	13024	11.59414563197	1
13	13251	11.750883464043	3
13	13263	11.751323464043	1
13	13276	11.751324542924	3
13	13287	11.751764542924	1
13	13323	11.7522069225	3
13	13340	11.7526469225	1
13	13348	11.752647947782	3
13	13361	11.753087947782	1
13	13565	12.000883464043	3
13	13577	12.001323464043	1
13	13589	12.00132454042	3
13	13601	12.00176454042	1
13	13637	12.002206921183	3
13	13654	12.002646921183	1
13	13662	12.002647946015	3
13	13675	12.003087946015	1
13	13848	12.250883464045	3
13	13860	12.251323464045	1
13	13872	12.251324537918	3
13	13884	12.251764537918	1
13	13920	12.25220691987	3
13	13937	12.25264691987	1
13	13945	12.252647944252	3
13	13958	12.253087944252	1
13	14073	12.500883464048	3
13	14089	12.501323464048	1
13	14096	12.501324535418	3
13	14108	12.501764535418	1
13	14144	12.502206918559	3
13	14161	12.502646918559	1
13	14170	12.502647942491	3
13	14184	12.503087942491	1
13	14296	12.750883464052	3
13	14312	12.751323464052	1
13	14319	12.75132453292	3
13	14331	12.75176453292	1
13	14367	12.752206917251	3
13	14384	12.752646917251	1
13	14393	12.752647940732	3
13	14407	12.753087940732	1
13	14520	13.000883464059	3
13	14536	13.001323464059	1
13	14543	13.001324530427	3
13	14555	13.001764530427	1
13	14591	13.002206915948	3
13	14608	13.002646915948	1
13	14617	13.002647938977	3
13	14631	13.003087938977	1
13	14743	13.250883464067	3
13	14759	13.251323464067	1
13	14766	13.251324527935	3
13	14778	13.251764527935	1
13	14814	13.252206914648	3
13	14831	13.252646914648	1
13	14840	13.252647937226	3
13	14854	13.253087937226	1
13	14967	13.500883464076	3
13	14983	13.501323464076	1
13	14990	13.501324525447	3
13	15002	13.501764525447	1
13	15038	13.502206913351	3
13	15055	13.502646913351	1
13	15064	13.502647935476	3
13	15078	13.503087935476	1
13	15190	13.750883464088	3
13	15206	13.751323464088	1
13	15213	13.751324522962	3
13	15225	13.751764522962	1
13	15261	13.752206912059	3
13	15278	13.752646912059	1
13	15287	13.752647933732	3
13	15301	13.753087933732	1
13	15414	14.000883464101	3
13	15430	14.001323464101	1
13	15437	14.001324520479	3
13	15449	14.001764520479	1
13	15485	14.002206910769	3
13	15502	14.002646910769	1
13	15511	14.002647931988	3
13	15525	14.003087931988	1
13	15637	14.250883464116	3
13	15653	14.251323464116	1
13	15660	14.251324517999	3
13	15672	14.251764517999	1
13	15708	14.252206909482	3
13	15725	14.252646909482	1
13	15734	14.252647930247	3
13	15748	14.253087930247	1
13	15861	14.500883464132	3
13	15877	14.501323464132	1
13	15884	14.501324515522	3
13	15896	14.501764515522	1
13	15932	14.502206908198	3
13	15949	14.502646908198	1
13	15958	14.502647928509	3
13	15972	14.503087928509	1
13	16084	14.75088346415	3
13	16100	14.75132346415	1
13	16107	14.751324513049	3
13	16119	14.751764513049	1
13	16155	14.75220690692	3
13	16172	14.75264690692	1
13	16181	14.752647926777	3
13	16195	14.753087926777	1
13	16309	15.00088346417	3
13	16326	15.00132346417	1
13	16333	15.001324510577	3
13	16345	15.001764510577	1
13	16381	15.002206905642	3
13	16398	15.002646905642	1
13	16407	15.002647925044	3
13	16421	15.003087925044	1
13	16511	15.096363987113	3
13	16526	15.096635987113	1
13	16708	15.245953646127	3
13	16723	15.246225646127	1
13	16789	15.250883464191	3
13	16805	15.251323464191	1
13	16812	15.251324508108	3
13	16824	15.251764508108	1
13	16860	15.252206904369	3
13	16877	15.252646904369	1
13	16886	15.252647923316	3
13	16900	15.253087923316	1
13	17028	15.462358068721	3
13	17040	15.462630068721	1
13	17143	15.500883464214	3
13	17160	15.501323464214	1
13	17167	15.501324505643	3
13	17179	15.501764505643	1
13	17215	15.5022069031	3
13	17233	15.5026469031	1
13	17242	15.502647921591	3
13	17257	15.503087921591	1
13	17333	15.516637031691	3
13	17345	15.516909031691	1
13	17556	15.623565943439	3
13	17571	15.623837943439	1
13	17649	15.686226689174	3
13	17661	15.686498689174	1
13	17762	15.75088346424	3
13	17778	15.75132346424	1
13	17785	15.75132450318	3
13	17797	15.75176450318	1
13	17833	15.752206901833	3
13	17850	15.752646901833	1
13	17859	15.752647919868	3
13	17873	15.753087919868	1
13	18047	15.842631088036	3
13	18062	15.842903088036	1
13	18229	15.924940247695	3
13	18241	15.925212247695	1
13	18460	16.000883464265	3
13	18477	16.001323464265	1
13	18484	16.00132450072	3
13	18496	16.00176450072	1
13	18532	16.002206900571	3
13	18550	16.002646900571	1
13	18559	16.00264791815	3
13	18574	16.00308791815	1
13	18657	16.045733876141	3
13	18672	16.046005876141	1
13	18693	16.069390013652	3
13	18708	16.069662013652	1
13	18785	16.113838982627	3
13	18797	16.114110982627	1
13	18844	16.120759597925	3
13	18856	16.121031597925	1
13	18939	16.160759579127	3
13	18954	16.161031579127	1
13	18973	16.175213265909	3
13	18988	16.175485265909	1
13	19004	16.184039832386	3
13	19016	16.184311832386	1
13	19121	16.250883464293	3
13	19137	16.251323464293	1
13	19144	16.251324498262	3
13	19156	16.251764498262	1
13	19192	16.252206899311	3
13	19209	16.252646899311	1
13	19218	16.252647916433	3
13	19232	16.253087916433	1
13	19400	16.349663048844	3
13	19412	16.349935048844	1
13	19499	16.404312850068	3
13	19514	16.404584850068	1
13	19531	16.416006911382	3
13	19543	16.416278911382	1
13	19790	16.500882878546	3
13	19807	16.501322878546	1
13	19814	16.501323910032	3
13	19826	16.501763910032	1
13	19862	16.502206312279	3
13	19880	16.502646312279	1
13	19889	16.502647328943	3
13	19904	16.503087328943	1
13	20225	16.750882879994	3
13	20241	16.751322879994	1
13	20248	16.751323908996	3
13	20260	16.751763908996	1
13	20296	16.752206312441	3
13	20313	16.752646312441	1
13	20322	16.752647328647	3
13	20336	16.753087328647	1
13	20564	17.000882881442	3
13	20581	17.001322881442	1
13	20588	17.001323907962	3
13	20600	17.001763907962	1
13	20636	17.002206312607	3
13	20654	17.002646312607	1
13	20663	17.002647328355	3
13	20678	17.003087328355	1
13	20789	17.250882882892	3
13	20805	17.251322882892	1
13	20812	17.251323906932	3
13	20824	17.251763906932	1
13	20860	17.252206312778	3
13	20877	17.252646312778	1
13	20886	17.252647328066	3
13	20900	17.253087328066	1
13	21011	17.500882884343	3
13	21028	17.501322884343	1
13	21035	17.501323905905	3
13	21047	17.501763905905	1
13	21083	17.50220631295	3
13	21101	17.50264631295	1
13	21110	17.50264732778	3
13	21125	17.50308732778	1
13	21236	17.750882885795	3
13	21252	17.751322885795	1
13	21259	17.751323904878	3
13	21271	17.751763904878	1
13	21307	17.752206313126	3
13	21324	17.752646313126	1
13	21333	17.752647327496	3
13	21347	17.753087327496	1
13	21458	18.000882887249	3
13	21475	18.001322887249	1
13	21482	18.001323903856	3
13	21494	18.001763903856	1
13	21530	18.002206313305	3
13	21548	18.002646313305	1
13	21557	18.002647327216	3
13	21572	18.003087327216	1
13	21683	18.250882888705	3
13	21699	18.251322888705	1
13	21706	18.251323902837	3
13	21718	18.251763902837	1
13	21754	18.252206313488	3
13	21771	18.252646313488	1
13	21780	18.252647326938	3
13	21794	18.253087326938	1
13	21905	18.500882890163	3
13	21922	18.501322890163	1
13	21929	18.50132390182	3
13	21941	18.50176390182	1
13	21977	18.502206313673	3
13	21995	18.502646313673	1
13	22004	18.502647326662	3
13	22019	18.503087326662	1
13	22130	18.750882891622	3
13	22146	18.751322891622	1
13	22153	18.751323900806	3
13	22165	18.751763900806	1
13	22201	18.752206313863	3
13	22218	18.752646313863	1
13	22227	18.752647326391	3
13	22241	18.753087326391	1
13	22352	19.000882893082	3
13	22369	19.001322893082	1
13	22376	19.001323899794	3
13	22388	19.001763899794	1
13	22424	19.002206314055	3
13	22442	19.002646314055	1
13	22451	19.002647326121	3
13	22466	19.003087326121	1
13	22577	19.250882894544	3
13	22593	19.251322894544	1
13	22600	19.251323898785	3
13	22612	19.251763898785	1
13	22648	19.25220631425	3
13	22665	19.25264631425	1
13	22674	19.252647325853	3
13	22688	19.253087325853	1
13	22799	19.500882896007	3
13	22816	19.501322896007	1
13	22823	19.501323897778	3
13	22835	19.501763897778	1
13	22871	19.502206314449	3
13	22889	19.502646314449	1
13	22898	19.50264732559	3
13	22913	19.50308732559	1
13	23024	19.750882897473	3
13	23040	19.751322897473	1
13	23047	19.751323896777	3
13	23059	19.751763896777	1
13	23095	19.752206314652	3
13	23112	19.752646314652	1
13	23121	19.752647325329	3
13	23135	19.753087325329	1
14	0	0	1
14	561	0.456255731488	2
14	570	0.456527731488	1
14	592	0.483438747712	2
14	601	0.483710747712	1
14	686	0.565221612143	2
14	695	0.565493612143	1
14	843	0.666622300692	2
14	852	0.666894300692	1
14	1109	0.866289297119	2
14	1118	0.866561297119	1
14	1445	0.95216738156	2
14	1454	0.95243938156	1
14	1697	1.0912889018	2
14	1706	1.0915609018	1
14	1927	1.227124775726	2
14	1936	1.227396775726	1
14	1956	1.235550107733	2
14	1965	1.235822107733	1
14	1996	1.236852435193	2
14	2023	1.237124435193	1
14	3023	5.00116467996	2
14	3036	5.00140467996	1
14	3070	5.001847346978	2
14	3083	5.002087346978	1
14	3115	5.002329526222	2
14	3132	5.002769526222	1
14	3673	5.190500709946	2
14	3682	5.190772709946	1
14	3815	5.250882448923	2
14	3830	5.251322448923	1
14	4147	5.43502098836	2
14	4156	5.43529298836	1
14	4375	5.500882448856	2
14	4388	5.501322448856	1
14	4792	5.621647619776	2
14	4801	5.621919619776	1
14	4818	5.628014169267	2
14	4827	5.628286169267	1
14	5188	5.869853028017	2
14	5197	5.870125028017	1
14	5522	6.057538199107	2
14	5531	6.057810199107	1
14	5678	6.147937299598	2
14	5688	6.148209299598	1
14	6169	6.347724410889	2
14	6178	6.347996410889	1
14	6919	6.781443024192	2
14	6928	6.781715024192	1
14	10430	10.409358690575	2
14	10439	10.409630690575	1
14	10873	10.504318230669	2
14	10882	10.504590230669	1
14	11184	10.744735554319	2
14	11193	10.745007554319	1
14	11449	10.769544487771	2
14	11458	10.769816487771	1
14	11668	10.876427874388	2
14	11677	10.876699874388	1
14	11814	10.946964047899	2
14	11823	10.947236047899	1
14	12298	11.104055524525	2
14	12307	11.104327524525	1
14	12679	11.342287494102	2
14	12688	11.342559494102	1
14	13408	11.763872605577	2
14	13417	11.764144605577	1
14	16544	15.116635987113	2
14	16553	15.116907987113	1
14	17399	15.542630068721	2
14	17408	15.542902068721	1
14	17683	15.706225646127	2
14	17692	15.706497646127	1
14	18017	15.833837943439	2
14	18026	15.834109943439	1
14	18169	15.880485466528	2
14	18178	15.880757466528	1
14	18815	16.115212247695	2
14	18824	16.115484247695	1
14	19659	16.466005876141	2
14	19668	16.466277876141	1
14	19712	16.489662013652	2
14	19721	16.489934013652	1
14	20023	16.624311832386	2
14	20032	16.624583832386	1
15	0	0	1
15	42	0.074949708204	3
15	57	0.075221708204	1
15	312	0.325496033945	3
15	324	0.325768033945	1
15	437	0.413439856679	3
15	452	0.413711856679	1
15	469	0.41598361531	3
15	484	0.41625561531	1
15	563	0.456256831597	3
15	575	0.456528831597	1
15	594	0.483439847757	3
15	606	0.483711847757	1
15	624	0.495495858535	3
15	636	0.495767858535	1
15	688	0.565222711996	3
15	700	0.565494711996	1
15	726	0.600743802241	3
15	738	0.601015802241	1
15	752	0.606623527398	3
15	764	0.606895527398	1
15	845	0.666623400308	3
15	857	0.666895400308	1
15	944	0.756623437171	3
15	959	0.756895437171	1
15	1111	0.866290396268	3
[...]
116	17781	15.751323718822	98
116	18480	16.001323718278	98
116	19140	16.251323717737	98
116	19760	16.500441096947	98
116	19780	16.500881636835	98
116	19810	16.501323131421	98
116	20195	16.750441096556	98
116	20215	16.750881636375	98
116	20244	16.751323132301	98
116	20534	17.000441096164	98
116	20554	17.000881635916	98
116	20584	17.001323133181	98
116	20759	17.250441095774	98
116	20779	17.250881635459	98
116	20808	17.251323134064	98
116	20981	17.500441095384	98
116	21001	17.500881635003	98
116	21031	17.501323134949	98
116	21206	17.750441094994	98
116	21226	17.750881634548	98
116	21255	17.751323135834	98
116	21428	18.000441094605	98
116	21448	18.000881634094	98
116	21478	18.001323136723	98
116	21653	18.250441094217	98
116	21673	18.250881633642	98
116	21702	18.251323137614	98
116	21875	18.500441093829	98
116	21895	18.500881633191	98
116	21925	18.501323138508	98
116	22100	18.750441093441	98
116	22120	18.750881632741	98
116	22149	18.751323139403	98
116	22322	19.000441093054	98
116	22342	19.000881632292	98
116	22372	19.0013231403	98
116	22547	19.250441092667	98
116	22567	19.250881631845	98
116	22596	19.251323141199	98
116	22769	19.500441092281	98
116	22789	19.500881631399	98
116	22819	19.501323142099	98
116	22994	19.750441091896	98
116	23014	19.750881630955	98
116	23043	19.751323143004	98
117	3167	5.003011789705	28
118	3214	5.003694137431	58
118	3863	5.251764712426	58
118	4421	5.50176471238	58
118	5941	6.252247316399	58
118	6777	6.75176404482	58
118	7112	7.001764044826	58
118	7335	7.251764044836	58
118	7559	7.501764044848	58
118	7782	7.751764044861	58
118	8006	8.001764044875	58
118	8229	8.251764044893	58
118	8453	8.501764044911	58
118	8676	8.751764044931	58
118	8900	9.001764044954	58
118	9123	9.251764044977	58
118	9347	9.501764045005	58
118	9570	9.751764045032	58
118	9795	10.001764045063	58
118	10179	10.251764045094	58
118	10767	10.501764045128	58
118	11302	10.751764045164	58
118	12025	11.001764045201	58
118	13294	11.75176465802	58
118	13608	12.001764656647	58
118	13891	12.251764655276	58
118	14115	12.501764653907	58
118	14338	12.751764652539	58
118	14562	13.001764651174	58
118	14785	13.251764649811	58
118	15009	13.501764648449	58
118	15232	13.751764647091	58
118	15456	14.001764645734	58
118	15679	14.251764644378	58
118	15903	14.501764643025	58
118	16126	14.751764641675	58
118	16352	15.001764640325	58
118	16831	15.251764638978	58
118	17186	15.501764637633	58
118	17804	15.75176463629	58
118	18503	16.001764634949	58
118	19163	16.251764633609	58
118	19833	16.501764046496	58
118	20267	16.751764046576	58
118	20607	17.001764046658	58
118	20831	17.251764046743	58
118	21054	17.501764046829	58
118	21278	17.751764046916	58
118	21501	18.001764047006	58
118	21725	18.251764047098	58
118	21948	18.501764047191	58
118	22172	18.751764047287	58
118	22395	19.001764047384	58
118	22619	19.251764047482	58
118	22842	19.501764047583	58
118	23066	19.751764047687	58
119	3214	5.003694137431	1
119	3863	5.251764712426	2
119	4421	5.50176471238	3
119	5941	6.252247316399	4
119	6777	6.75176404482	5
119	7112	7.001764044826	6
119	7335	7.251764044836	7
119	7559	7.501764044848	8
119	7782	7.751764044861	9
119	8006	8.001764044875	10
119	8229	8.251764044893	11
119	8453	8.501764044911	12
119	8676	8.751764044931	13
119	8900	9.001764044954	14
119	9123	9.251764044977	15
119	9347	9.501764045005	16
119	9570	9.751764045032	17
119	9795	10.001764045063	18
119	10179	10.251764045094	19
119	10767	10.501764045128	20
119	11302	10.751764045164	21
119	12025	11.001764045201	22
119	13294	11.75176465802	23
119	13608	12.001764656647	24
119	13891	12.251764655276	25
119	14115	12.501764653907	26
119	14338	12.751764652539	27
119	14562	13.001764651174	28
119	14785	13.251764649811	29
119	15009	13.501764648449	30
119	15232	13.751764647091	31
119	15456	14.001764645734	32
119	15679	14.251764644378	33
119	15903	14.501764643025	34
119	16126	14.751764641675	35
119	16352	15.001764640325	36
119	16831	15.251764638978	37
119	17186	15.501764637633	38
119	17804	15.75176463629	39
119	18503	16.001764634949	40
119	19163	16.251764633609	41
119	19833	16.501764046496	42
119	20267	16.751764046576	43
119	20607	17.001764046658	44
119	20831	17.251764046743	45
119	21054	17.501764046829	46
119	21278	17.751764046916	47
119	21501	18.001764047006	48
119	21725	18.251764047098	49
119	21948	18.501764047191	50
119	22172	18.751764047287	51
119	22395	19.001764047384	52
119	22619	19.251764047482	53
119	22842	19.501764047583	54
119	23066	19.751764047687	55
120	3215	5.003694137431	50
120	3864	5.251764712426	50
120	4422	5.50176471238	50
120	5942	6.252247316399	50
120	6778	6.75176404482	50
120	7113	7.001764044826	50
120	7336	7.251764044836	50
120	7560	7.501764044848	50
120	7783	7.751764044861	50
120	8007	8.001764044875	50
120	8230	8.251764044893	50
120	8454	8.501764044911	50
120	8677	8.751764044931	50
120	8901	9.001764044954	50
120	9124	9.251764044977	50
120	9348	9.501764045005	50
120	9571	9.751764045032	50
120	9796	10.001764045063	50
120	10180	10.251764045094	50
120	10768	10.501764045128	50
120	11303	10.751764045164	50
120	12026	11.001764045201	50
120	13295	11.75176465802	50
120	13609	12.001764656647	50
120	13892	12.251764655276	50
120	14116	12.501764653907	50
120	14339	12.751764652539	50
120	14563	13.001764651174	50
120	14786	13.251764649811	50
120	15010	13.501764648449	50
120	15233	13.751764647091	50
120	15457	14.001764645734	50
120	15680	14.251764644378	50
120	15904	14.501764643025	50
120	16127	14.751764641675	50
120	16353	15.001764640325	50
120	16832	15.251764638978	50
120	17187	15.501764637633	50
120	17805	15.75176463629	50
120	18504	16.001764634949	50
120	19164	16.251764633609	50
120	19834	16.501764046496	50
120	20268	16.751764046576	50
120	20608	17.001764046658	50
120	20832	17.251764046743	50
120	21055	17.501764046829	50
120	21279	17.751764046916	50
120	21502	18.001764047006	50
120	21726	18.251764047098	50
120	21949	18.501764047191	50
120	22173	18.751764047287	50
120	22396	19.001764047384	50
120	22620	19.251764047482	50
120	22843	19.501764047583	50
120	23067	19.751764047687	50
121	3216	5.003694137431	58
121	3865	5.251764712426	58
121	4423	5.50176471238	58
121	5943	6.252247316399	58
121	6779	6.75176404482	58
121	7114	7.001764044826	58
121	7337	7.251764044836	58
121	7561	7.501764044848	58
121	7784	7.751764044861	58
121	8008	8.001764044875	58
121	8231	8.251764044893	58
121	8455	8.501764044911	58
121	8678	8.751764044931	58
121	8902	9.001764044954	58
121	9125	9.251764044977	58
121	9349	9.501764045005	58
121	9572	9.751764045032	58
121	9797	10.001764045063	58
121	10181	10.251764045094	58
121	10769	10.501764045128	58
121	11304	10.751764045164	58
121	12027	11.001764045201	58
121	13296	11.75176465802	58
121	13610	12.001764656647	58
121	13893	12.251764655276	58
121	14117	12.501764653907	58
121	14340	12.751764652539	58
121	14564	13.001764651174	58
121	14787	13.251764649811	58
121	15011	13.501764648449	58
121	15234	13.751764647091	58
121	15458	14.001764645734	58
121	15681	14.251764644378	58
121	15905	14.501764643025	58
121	16128	14.751764641675	58
121	16354	15.001764640325	58
121	16833	15.251764638978	58
121	17188	15.501764637633	58
121	17806	15.75176463629	58
121	18505	16.001764634949	58
121	19165	16.251764633609	58
121	19835	16.501764046496	58
121	20269	16.751764046576	58
121	20609	17.001764046658	58
121	20833	17.251764046743	58
121	21056	17.501764046829	58
121	21280	17.751764046916	58
121	21503	18.001764047006	58
121	21727	18.251764047098	58
121	21950	18.501764047191	58
121	22174	18.751764047287	58
121	22397	19.001764047384	58
121	22621	19.251764047482	58
121	22844	19.501764047583	58
121	23068	19.751764047687	58
122	3263	5.004376403376	28
122	5843	6.250682427259	28
123	3312	5.005058587531	28
124	3332	5.005299570135	28
125	3383	5.005981535346	28
126	3410	5.006222331617	28
127	3460	5.006903924158	58
127	3957	5.253528757238	58
127	4515	5.50352875719	58
127	6871	6.753528089639	58
127	7206	7.003528089652	58
127	7429	7.253528089672	58
127	7653	7.503528089695	58
127	7876	7.753528089721	58
127	8100	8.003528089749	58
127	8323	8.253528089785	58
127	8547	8.503528089822	58
127	8770	8.753528089862	58
127	8994	9.003528089909	58
127	9217	9.253528089955	58
127	9441	9.503528090009	58
127	9664	9.753528090064	58
127	9889	10.003528090125	58
127	10273	10.253528090188	58
127	10861	10.503528090256	58
127	11396	10.753528090327	58
127	13388	11.753529316027	58
127	13702	12.003529313281	58
127	13985	12.25352931054	58
127	14209	12.503529307801	58
127	14432	12.753529305065	58
127	14656	13.003529302336	58
127	14879	13.25352929961	58
127	15103	13.503529296887	58
127	15326	13.753529294171	58
127	15550	14.003529291456	58
127	15773	14.253529288744	58
127	15997	14.503529286037	58
127	16220	14.753529283337	58
127	16446	15.003529280638	58
127	16925	15.253529277943	58
127	17282	15.503529275253	58
127	17898	15.753529272567	58
127	18599	16.003529269886	58
127	19257	16.253529267206	58
127	19929	16.503528678756	58
127	20361	16.753528677501	58
127	20703	17.00352867625	58
127	20925	17.253528675003	58
127	21150	17.50352867376	58
127	21372	17.75352867252	58
127	21597	18.003528671285	58
127	21819	18.253528670055	58
127	22044	18.503528668826	58
127	22266	18.753528667603	58
127	22491	19.003528666383	58
127	22713	19.253528665167	58
127	22938	19.503528663955	58
127	23160	19.753528662748	58
128	3460	5.006903924158	1
128	3957	5.253528757238	2
128	4515	5.50352875719	3
128	6871	6.753528089639	4
128	7206	7.003528089652	5
128	7429	7.253528089672	6
128	7653	7.503528089695	7
128	7876	7.753528089721	8
128	8100	8.003528089749	9
128	8323	8.253528089785	10
128	8547	8.503528089822	11
128	8770	8.753528089862	12
128	8994	9.003528089909	13
128	9217	9.253528089955	14
128	9441	9.503528090009	15
128	9664	9.753528090064	16
128	9889	10.003528090125	17
128	10273	10.253528090188	18
128	10861	10.503528090256	19
128	11396	10.753528090327	20
128	13388	11.753529316027	21
128	13702	12.003529313281	22
128	13985	12.25352931054	23
128	14209	12.503529307801	24
128	14432	12.753529305065	25
128	14656	13.003529302336	26
128	14879	13.25352929961	27
128	15103	13.503529296887	28
128	15326	13.753529294171	29
128	15550	14.003529291456	30
128	15773	14.253529288744	31
128	15997	14.503529286037	32
128	16220	14.753529283337	33
128	16446	15.003529280638	34
128	16925	15.253529277943	35
128	17282	15.503529275253	36
128	17898	15.753529272567	37
128	18599	16.003529269886	38
128	19257	16.253529267206	39
128	19929	16.503528678756	40
128	20361	16.753528677501	41
128	20703	17.00352867625	42
128	20925	17.253528675003	43
128	21150	17.50352867376	44
128	21372	17.75352867252	45
128	21597	18.003528671285	46
128	21819	18.253528670055	47
128	22044	18.503528668826	48
128	22266	18.753528667603	49
128	22491	19.003528666383	50
128	22713	19.253528665167	51
128	22938	19.503528663955	52
128	23160	19.753528662748	53
129	3461	5.006903924158	50
129	3958	5.253528757238	50
129	4516	5.50352875719	50
129	6872	6.753528089639	50
129	7207	7.003528089652	50
129	7430	7.253528089672	50
129	7654	7.503528089695	50
129	7877	7.753528089721	50
129	8101	8.003528089749	50
129	8324	8.253528089785	50
129	8548	8.503528089822	50
129	8771	8.753528089862	50
129	8995	9.003528089909	50
129	9218	9.253528089955	50
129	9442	9.503528090009	50
129	9665	9.753528090064	50
129	9890	10.003528090125	50
129	10274	10.253528090188	50
129	10862	10.503528090256	50
129	11397	10.753528090327	50
129	13389	11.753529316027	50
129	13703	12.003529313281	50
129	13986	12.25352931054	50
129	14210	12.503529307801	50
129	14433	12.753529305065	50
129	14657	13.003529302336	50
129	14880	13.25352929961	50
129	15104	13.503529296887	50
129	15327	13.753529294171	50
129	15551	14.003529291456	50
129	15774	14.253529288744	50
129	15998	14.503529286037	50
129	16221	14.753529283337	50
129	16447	15.003529280638	50
129	16926	15.253529277943	50
129	17283	15.503529275253	50
129	17899	15.753529272567	50
129	18600	16.003529269886	50
129	19258	16.253529267206	50
129	19930	16.503528678756	50
129	20362	16.753528677501	50
129	20704	17.00352867625	50
129	20926	17.253528675003	50
129	21151	17.50352867376	50
129	21373	17.75352867252	50
129	21598	18.003528671285	50
129	21820	18.253528670055	50
129	22045	18.503528668826	50
129	22267	18.753528667603	50
129	22492	19.003528666383	50
129	22714	19.253528665167	50
129	22939	19.503528663955	50
129	23161	19.753528662748	50
130	3461	0.1	0
130	3461	0.2	0
130	3461	0.3	0
130	3461	0.4	0
130	3461	0.5	0
130	3461	0.6	0
130	3461	0.7	0
130	3461	0.8	0
130	3461	0.9	0
130	3461	1	0
130	3461	1.1	0
130	3461	1.2	0
130	3461	1.3	0
130	3461	1.4	0
130	3461	1.5	0
130	3461	1.6	0
130	3461	1.7	0
130	3461	1.8	0
130	3461	1.9	0
130	3461	2	0
130	3461	2.1	0
130	3461	2.2	0
130	3461	2.3	0
130	3461	2.4	0
130	3461	2.5	0
130	3461	2.6	0
130	3461	2.7	0
130	3461	2.8	0
130	3461	2.9	0
130	3461	3	0
130	3461	3.1	0
130	3461	3.2	0
130	3461	3.3	0
130	3461	3.4	0
130	3461	3.5	0
130	3461	3.6	0
130	3461	3.7	0
130	3461	3.8	0
130	3461	3.9	0
130	3461	4	0
130	3461	4.1	0
130	3461	4.2	0
130	3461	4.3	0
130	3461	4.4	0
130	3461	4.5	0
130	3461	4.6	0
130	3461	4.7	0
130	3461	4.8	0
130	3461	4.9	0
130	3461	5	0
130	3958	5.1	4000
130	3958	5.2	0
130	4516	5.3	4000
130	4516	5.4	0
130	4516	5.5	0
130	6872	5.6	4000
130	6872	5.7	0
130	6872	5.8	0
130	6872	5.9	0
130	6872	6	0
130	6872	6.1	0
130	6872	6.2	0
130	6872	6.3	0
130	6872	6.4	0
130	6872	6.5	0
130	6872	6.6	0
130	6872	6.7	0
130	7207	6.8	4000
130	7207	6.9	0
130	7207	7	0
130	7430	7.1	4000
130	7430	7.2	0
130	7654	7.3	4000
130	7654	7.4	0
130	7654	7.5	0
130	7877	7.6	4000
130	7877	7.7	0
130	8101	7.8	4000
130	8101	7.9	0
130	8101	8	0
130	8324	8.1	4000
130	8324	8.2	0
130	8548	8.3	4000
130	8548	8.4	0
130	8548	8.5	0
130	8771	8.6	4000
130	8771	8.7	0
130	8995	8.8	4000
130	8995	8.9	0
130	8995	9	0
130	9218	9.1	4000
130	9218	9.2	0
130	9442	9.3	4000
130	9442	9.4	0
130	9442	9.5	0
130	9665	9.6	4000
130	9665	9.7	0
130	9890	9.8	4000
130	9890	9.9	0
130	9890	10	0
130	10274	10.1	4000
130	10274	10.2	0
130	10862	10.3	4000
130	10862	10.4	0
130	10862	10.5	0
130	11397	10.6	4000
130	11397	10.7	0
130	13389	10.8	4000
130	13389	10.9	0
130	13389	11	0
130	13389	11.1	0
130	13389	11.2	0
130	13389	11.3	0
130	13389	11.4	0
130	13389	11.5	0
130	13389	11.6	0
130	13389	11.7	0
130	13703	11.8	4000
130	13703	11.9	0
130	13703	12	0
130	13986	12.1	4000
130	13986	12.2	0
130	14210	12.3	4000
130	14210	12.4	0
130	14210	12.5	0
130	14433	12.6	4000
130	14433	12.7	0
130	14657	12.8	4000
130	14657	12.9	0
130	14657	13	0
130	14880	13.1	4000
130	14880	13.2	0
130	15104	13.3	4000
130	15104	13.4	0
130	15104	13.5	0
130	15327	13.6	4000
130	15327	13.7	0
130	15551	13.8	4000
130	15551	13.9	0
130	15551	14	0
130	15774	14.1	4000
130	15774	14.2	0
130	15998	14.3	4000
130	15998	14.4	0
130	15998	14.5	0
130	16221	14.6	4000
130	16221	14.7	0
130	16447	14.8	4000
130	16447	14.9	0
130	16447	15	0
130	16926	15.1	4000
130	16926	15.2	0
130	17283	15.3	4000
130	17283	15.4	0
130	17283	15.5	0
130	17899	15.6	4000
130	17899	15.7	0
130	18600	15.8	4000
130	18600	15.9	0
130	18600	16	0
130	19258	16.1	4000
130	19258	16.2	0
130	19930	16.3	4000
130	19930	16.4	0
130	19930	16.5	0
130	20362	16.6	4000
130	20362	16.7	0
130	20704	16.8	4000
130	20704	16.9	0
130	20704	17	0
130	20926	17.1	4000
130	20926	17.2	0
130	21151	17.3	4000
130	21151	17.4	0
130	21151	17.5	0
130	21373	17.6	4000
130	21373	17.7	0
130	21598	17.8	4000
130	21598	17.9	0
130	21598	18	0
130	21820	18.1	4000
130	21820	18.2	0
130	22045	18.3	4000
130	22045	18.4	0
130	22045	18.5	0
130	22267	18.6	4000
130	22267	18.7	0
130	22492	18.8	4000
130	22492	18.9	0
130	22492	19	0
130	22714	19.1	4000
130	22714	19.2	0
130	22939	19.3	4000
130	22939	19.4	0
130	22939	19.5	0
130	23161	19.6	4000
130	23161	19.7	0
130	23200	19.8	4000
130	23200	19.9	0
130	23200	20	0
131	3461	5.006903924158	0.006903924158
131	3958	5.253528757238	0.003528757238
131	4516	5.50352875719	0.00352875719
131	6872	6.753528089639	0.003528089639
131	7207	7.003528089652	0.003528089652
131	7430	7.253528089672	0.003528089672
131	7654	7.503528089695	0.003528089695
131	7877	7.753528089721	0.003528089721
131	8101	8.003528089749	0.003528089749
131	8324	8.253528089785	0.003528089785
131	8548	8.503528089822	0.003528089822
131	8771	8.753528089862	0.003528089862
131	8995	9.003528089909	0.003528089909
131	9218	9.253528089955	0.003528089955
131	9442	9.503528090009	0.003528090009
131	9665	9.753528090064	0.003528090064
131	9890	10.003528090125	0.003528090125
131	10274	10.253528090188	0.003528090188
131	10862	10.503528090256	0.003528090256
131	11397	10.753528090327	0.003528090327
131	13389	11.753529316027	0.003529316027
131	13703	12.003529313281	0.003529313281
131	13986	12.25352931054	0.00352931054
131	14210	12.503529307801	0.003529307801
131	14433	12.753529305065	0.003529305065
131	14657	13.003529302336	0.003529302336
131	14880	13.25352929961	0.00352929961
131	15104	13.503529296887	0.003529296887
131	15327	13.753529294171	0.003529294171
131	15551	14.003529291456	0.003529291456
131	15774	14.253529288744	0.003529288744
131	15998	14.503529286037	0.003529286037
131	16221	14.753529283337	0.003529283337
131	16447	15.003529280638	0.003529280638
131	16926	15.253529277943	0.003529277943
131	17283	15.503529275253	0.003529275253
131	17899	15.753529272567	0.003529272567
131	18600	16.003529269886	0.003529269886
131	19258	16.253529267206	0.003529267206
131	19930	16.503528678756	0.003528678756
131	20362	16.753528677501	0.003528677501
131	20704	17.00352867625	0.00352867625
131	20926	17.253528675003	0.003528675003
131	21151	17.50352867376	0.00352867376
131	21373	17.75352867252	0.00352867252
131	21598	18.003528671285	0.003528671285
131	21820	18.253528670055	0.003528670055
131	22045	18.503528668826	0.003528668826
131	22267	18.753528667603	0.003528667603
131	22492	19.003528666383	0.003528666383
131	22714	19.253528665167	0.003528665167
131	22939	19.503528663955	0.003528663955
131	23161	19.753528662748	0.003528662748
132	3461	5.006903924158	0
132	3958	5.253528757238	1
132	4516	5.50352875719	2
132	6872	6.753528089639	7
132	7207	7.003528089652	8
132	7430	7.253528089672	9
132	7654	7.503528089695	10
132	7877	7.753528089721	11
132	8101	8.003528089749	12
132	8324	8.253528089785	13
132	8548	8.503528089822	14
132	8771	8.753528089862	15
132	8995	9.003528089909	16
132	9218	9.253528089955	17
132	9442	9.503528090009	18
132	9665	9.753528090064	19
132	9890	10.003528090125	20
132	10274	10.253528090188	21
132	10862	10.503528090256	22
132	11397	10.753528090327	23
132	13389	11.753529316027	27
132	13703	12.003529313281	28
132	13986	12.25352931054	29
132	14210	12.503529307801	30
132	14433	12.753529305065	31
132	14657	13.003529302336	32
132	14880	13.25352929961	33
132	15104	13.503529296887	34
132	15327	13.753529294171	35
132	15551	14.003529291456	36
132	15774	14.253529288744	37
132	15998	14.503529286037	38
132	16221	14.753529283337	39
132	16447	15.003529280638	40
132	16926	15.253529277943	41
132	17283	15.503529275253	42
132	17899	15.753529272567	43
132	18600	16.003529269886	44
132	19258	16.253529267206	45
132	19930	16.503528678756	46
132	20362	16.753528677501	47
132	20704	17.00352867625	48
132	20926	17.253528675003	49
132	21151	17.50352867376	50
132	21373	17.75352867252	51
132	21598	18.003528671285	52
132	21820	18.253528670055	53
132	22045	18.503528668826	54
132	22267	18.753528667603	55
132	22492	19.003528666383	56
132	22714	19.253528665167	57
132	22939	19.503528663955	58
132	23161	19.753528662748	59
133	5964	6.252688493194	78
134	12068	11.002646289719	78
135	12506	11.250440786473	78
136	12912	11.5	78

